@<TRIPOS>MOLECULE
res
   16    16     1     0     0
SMALL
No Charge or Current Charge


@<TRIPOS>ATOM
      1 H11         0.0000   -0.5120    0.8370 H         1 MOL      0.307300
      2 N1          0.0000    0.0210    0.0060 N.am      1 MOL     -0.674900
      3 H12        -0.0180   -0.5420   -0.8490 H         1 MOL      0.317800
      4 C1         -0.0330    1.3620   -0.0910 C.2       1 MOL      0.670700
      5 O1         -0.0660    1.9680   -1.1890 O.2       1 MOL     -0.611600
      6 C2          0.0220    2.1320    1.1800 C.ar      1 MOL     -0.141000
      7 C3          0.5170    1.5740    2.3760 C.ar      1 MOL     -0.104300
      8 H31         0.9060    0.5850    2.4480 H         1 MOL      0.131500
      9 C5          0.5160    2.3580    3.5470 C.ar      1 MOL     -0.139800
     10 H51         0.9130    1.9440    4.4470 H         1 MOL      0.135500
     11 C7          0.0600    3.6780    3.5270 C.ar      1 MOL     -0.107900
     12 C6         -0.4140    4.2290    2.3510 C.ar      1 MOL     -0.138600
     13 H61        -0.7820    5.2540    2.3480 H         1 MOL      0.138600
     14 C4         -0.4310    3.4770    1.1660 C.ar      1 MOL     -0.076300
     15 H41        -0.8170    3.9310    0.2740 H         1 MOL      0.157900
     16 H71         0.0720    4.2690    4.4510 H         1 MOL      0.135200
@<TRIPOS>BOND
     1    1    2 1   
     2    2    3 1   
     3    2    4 am  
     4    4    5 2   
     5    4    6 1   
     6    6    7 ar  
     7    6   14 ar  
     8    7    8 1   
     9    7    9 ar  
    10    9   10 1   
    11    9   11 ar  
    12   11   12 ar  
    13   11   16 1   
    14   12   13 1   
    15   12   14 ar  
    16   14   15 1   
@<TRIPOS>SUBSTRUCTURE
     1 res         1 TEMP              0 ****  ****    0 ROOT
