@<TRIPOS>MOLECULE
s60
   11    10     1     0     0
SMALL
No Charge or Current Charge


@<TRIPOS>ATOM
      1 C1         -1.9970   -0.0150   -1.0150 C.3       1 MOL     -0.092700
      2 H1         -1.8650   -0.1010   -2.0560 H         1 MOL      0.032300
      3 H2         -1.2160    0.6620   -0.6290 H         1 MOL      0.031600
      4 C2         -1.9010   -1.3490   -0.2820 C.3       1 MOL     -0.081200
      5 H4         -0.9110   -1.8040   -0.4910 H         1 MOL      0.037100
      6 H5         -2.0210   -1.1860    0.7610 H         1 MOL      0.037100
      7 C8         -2.9810   -2.3160   -0.7890 C.3       1 MOL     -0.092700
      8 H3         -2.9070   -3.3000   -0.2920 H         1 MOL      0.031600
      9 H6         -3.9730   -1.9150   -0.6320 H         1 MOL      0.032300
     10 H7         -2.8900   -2.5100   -1.8690 H         1 MOL      0.032300
     11 H8         -2.9800    0.4660   -0.8200 H         1 MOL      0.032300
@<TRIPOS>BOND
     1    1    2 1   
     2    1    3 1   
     3    1    4 1   
     4    1   11 1   
     5    4    5 1   
     6    4    6 1   
     7    4    7 1   
     8    7    8 1   
     9    7    9 1   
    10    7   10 1   
@<TRIPOS>SUBSTRUCTURE
     1 s60         1 TEMP              0 ****  ****    0 ROOT
