@<TRIPOS>MOLECULE
mfc
   12    11     1     0     0
SMALL
No Charge or Current Charge


@<TRIPOS>ATOM
      1 H5          1.1270    0.4020    1.0640 H         1 MOL      0.056700
      2 C1          0.9100   -0.0490    0.1030 C.3       1 MOL     -0.010200
      3 H6          1.1080   -1.1380    0.1670 H         1 MOL      0.056700
      4 C3          1.8270    0.5490   -0.9350 C.3       1 MOL     -0.085200
      5 H7          2.8890    0.3680   -0.6780 H         1 MOL      0.041000
      6 H8          1.6780    0.0870   -1.9150 H         1 MOL      0.048800
      7 H9          1.7200    1.6200   -1.0310 H         1 MOL      0.048700
      8 S2         -0.8130    0.2310   -0.3400 S.3       1 MOL     -0.299000
      9 C4         -1.6050   -0.5970    1.0310 C.3       1 MOL     -0.042000
     10 H10        -2.6990   -0.5140    0.9610 H         1 MOL      0.077700
     11 H11        -1.3350   -1.6420    1.0660 H         1 MOL      0.053400
     12 H12        -1.3020   -0.1070    1.9960 H         1 MOL      0.053500
@<TRIPOS>BOND
     1    1    2 1   
     2    2    3 1   
     3    2    4 1   
     4    2    8 1   
     5    4    5 1   
     6    4    6 1   
     7    4    7 1   
     8    8    9 1   
     9    9   10 1   
    10    9   11 1   
    11    9   12 1   
@<TRIPOS>SUBSTRUCTURE
     1 mfc         1 TEMP              0 ****  ****    0 ROOT
