@<TRIPOS>MOLECULE
res
    6     5     1     0     0
SMALL
No Charge or Current Charge


@<TRIPOS>ATOM
      1 H11        -1.7290    0.3590   -0.5740 H         1 MOL      0.080100
      2 C1         -0.7000    0.0560   -0.6690 C.3       1 MOL     -0.023800
      3 H12        -0.5790   -1.0380   -0.4440 H         1 MOL      0.055500
      4 H13        -0.3030    0.2300   -1.6890 H         1 MOL      0.055400
      5 S1          0.3030    1.0070    0.5120 S.3       1 MOL     -0.363400
      6 H1          1.4920    0.4060    0.2160 H         1 MOL      0.196200
@<TRIPOS>BOND
     1    1    2 1   
     2    2    3 1   
     3    2    4 1   
     4    2    5 1   
     5    5    6 1   
@<TRIPOS>SUBSTRUCTURE
     1 res         1 TEMP              0 ****  ****    0 ROOT
