@<TRIPOS>MOLECULE
etgd.xyz	      0.0000000
   20    19     0     0     0
SMALL
USER_CHARGES

@<TRIPOS>ATOM
      1 C1          1.5005    0.0000    0.0000 C.2       1 <0>         0.6513
      2 C2          3.0803   -0.0743   -2.9305 C.2       1 <0>         0.6512
      3 C3          0.0000    0.0000    0.0000 C.3       1 <0>        -0.1552
      4 C4          3.4592   -1.4092   -3.5017 C.3       1 <0>        -0.1552
      5 C5          3.3847    1.4490   -0.0738 C.3       1 <0>         0.1153
      6 C6          3.8652    1.6533   -1.4970 C.3       1 <0>         0.1151
      7 O1          2.1852   -0.9748   -0.0080 O.2       1 <0>        -0.5383
      8 O2          2.0370    0.4738   -3.1047 O.2       1 <0>        -0.5384
      9 O3          1.9841    1.2367    0.0000 O.3       1 <0>        -0.4290
     10 O4          4.0579    0.4277   -2.1851 O.3       1 <0>        -0.4290
     11 H1         -0.3409    0.3739   -0.9590 H         1 <0>         0.0791
     12 H2         -0.3762    0.6595    0.7725 H         1 <0>         0.0661
     13 H3         -0.3614   -1.0065    0.1508 H         1 <0>         0.0705
     14 H4          4.4346   -1.3547   -3.9692 H         1 <0>         0.0660
     15 H5          3.5135   -2.1251   -2.6891 H         1 <0>         0.0791
     16 H6          2.7123   -1.7214   -4.2165 H         1 <0>         0.0705
     17 H7          3.9117    0.6314    0.3961 H         1 <0>         0.0702
     18 H8          3.5585    2.3614    0.4818 H         1 <0>         0.0703
     19 H9          3.1831    2.2862   -2.0456 H         1 <0>         0.0702
     20 H10         4.8443    2.1135   -1.4665 H         1 <0>         0.0703
@<TRIPOS>BOND
     1    1    3 1
     2    1    7 2
     3    1    9 1
     4    2    4 1
     5    2    8 2
     6    2   10 1
     7    5    6 1
     8    5    9 1
     9    6   10 1
    10    3   11 1
    11    3   12 1
    12    3   13 1
    13    4   14 1
    14    4   15 1
    15    4   16 1
    16    5   17 1
    17    5   18 1
    18    6   19 1
    19    6   20 1
@<TRIPOS>MOLECULE
*****
   20    19     0     0     0
SMALL
USER_CHARGES

@<TRIPOS>ATOM
      1 C1         -0.7126    1.3208   -1.5485 C.2       1 <0>         0.6513
      2 C2         -4.7448   -2.1207   -2.4716 C.2       1 <0>         0.6512
      3 C3         -0.1306    1.1111   -0.1834 C.3       1 <0>        -0.1552
      4 C4         -4.3196   -3.5311   -2.1961 C.3       1 <0>        -0.1552
      5 C5         -2.5898    0.8104   -2.8899 C.3       1 <0>         0.1153
      6 C6         -3.9063    0.0606   -2.8220 C.3       1 <0>         0.1151
      7 O1         -0.1670    1.9646   -2.4344 O.2       1 <0>        -0.5383
      8 O2         -5.9099   -1.7679   -2.5948 O.2       1 <0>        -0.5384
      9 O3         -1.9187    0.6904   -1.6316 O.3       1 <0>        -0.4290
     10 O4         -3.6452   -1.3131   -2.5610 O.3       1 <0>        -0.4290
     11 H1          0.0291    0.0443   -0.0082 H         1 <0>         0.0791
     12 H2         -0.7988    1.5302    0.5731 H         1 <0>         0.0661
     13 H3          0.8336    1.6234   -0.1177 H         1 <0>         0.0705
     14 H4         -3.7867   -3.5784   -1.2433 H         1 <0>         0.0660
     15 H5         -3.6867   -3.8934   -3.0102 H         1 <0>         0.0791
     16 H6         -5.2046   -4.1709   -2.1328 H         1 <0>         0.0705
     17 H7         -2.7514    1.8740   -3.0899 H         1 <0>         0.0702
     18 H8         -1.9455    0.3833   -3.6639 H         1 <0>         0.0703
     19 H9         -4.4495    0.1303   -3.7697 H         1 <0>         0.0702
     20 H10        -4.5281    0.4514   -2.0113 H         1 <0>         0.0703
@<TRIPOS>BOND
     1    1    3 1
     2    1    7 2
     3    1    9 1
     4    2    4 1
     5    2    8 2
     6    2   10 1
     7    5    6 1
     8    5    9 1
     9    6   10 1
    10    3   11 1
    11    3   12 1
    12    3   13 1
    13    4   14 1
    14    4   15 1
    15    4   16 1
    16    5   17 1
    17    5   18 1
    18    6   19 1
    19    6   20 1
@<TRIPOS>MOLECULE
*****
   20    19     0     0     0
SMALL
USER_CHARGES

@<TRIPOS>ATOM
      1 C1         -0.7126    1.3208   -1.5485 C.2       1 <0>         0.6513
      2 C2         -5.9250    0.0313   -1.5940 C.2       1 <0>         0.6512
      3 C3         -0.1306    1.1111   -0.1834 C.3       1 <0>        -0.1552
      4 C4         -6.6442    0.7076   -0.4665 C.3       1 <0>        -0.1552
      5 C5         -2.5898    0.8104   -2.8899 C.3       1 <0>         0.1153
      6 C6         -3.9063    0.0606   -2.8220 C.3       1 <0>         0.1151
      7 O1         -0.1670    1.9646   -2.4344 O.2       1 <0>        -0.5383
      8 O2         -6.3862   -0.8995   -2.2406 O.2       1 <0>        -0.5384
      9 O3         -1.9187    0.6904   -1.6316 O.3       1 <0>        -0.4290
     10 O4         -4.6998    0.6097   -1.7769 O.3       1 <0>        -0.4290
     11 H1          0.0291    0.0443   -0.0082 H         1 <0>         0.0791
     12 H2         -0.7988    1.5302    0.5731 H         1 <0>         0.0661
     13 H3          0.8336    1.6234   -0.1177 H         1 <0>         0.0705
     14 H4         -6.8004    1.7623   -0.7058 H         1 <0>         0.0660
     15 H5         -6.0685    0.6029    0.4566 H         1 <0>         0.0791
     16 H6         -7.6200    0.2344   -0.3231 H         1 <0>         0.0705
     17 H7         -2.7514    1.8740   -3.0899 H         1 <0>         0.0702
     18 H8         -1.9455    0.3833   -3.6639 H         1 <0>         0.0703
     19 H9         -3.7457   -1.0004   -2.6066 H         1 <0>         0.0702
     20 H10        -4.4563    0.1668   -3.7617 H         1 <0>         0.0703
@<TRIPOS>BOND
     1    1    3 1
     2    1    7 2
     3    1    9 1
     4    2    4 1
     5    2    8 2
     6    2   10 1
     7    5    6 1
     8    5    9 1
     9    6   10 1
    10    3   11 1
    11    3   12 1
    12    3   13 1
    13    4   14 1
    14    4   15 1
    15    4   16 1
    16    5   17 1
    17    5   18 1
    18    6   19 1
    19    6   20 1
@<TRIPOS>MOLECULE
*****
   20    19     0     0     0
SMALL
USER_CHARGES

@<TRIPOS>ATOM
      1 C1         -0.7126    1.3208   -1.5485 C.2       1 <0>         0.6513
      2 C2         -5.7940   -0.4307   -4.1559 C.2       1 <0>         0.6512
      3 C3         -0.1306    1.1111   -0.1834 C.3       1 <0>        -0.1552
      4 C4         -6.3866   -0.2015   -5.5132 C.3       1 <0>        -0.1552
      5 C5         -2.5898    0.8104   -2.8899 C.3       1 <0>         0.1153
      6 C6         -3.9063    0.0606   -2.8220 C.3       1 <0>         0.1151
      7 O1         -0.1670    1.9646   -2.4344 O.2       1 <0>        -0.5383
      8 O2         -6.3334   -1.0859   -3.2745 O.2       1 <0>        -0.5384
      9 O3         -1.9187    0.6904   -1.6316 O.3       1 <0>        -0.4290
     10 O4         -4.5827    0.1970   -4.0660 O.3       1 <0>        -0.4290
     11 H1          0.0291    0.0443   -0.0082 H         1 <0>         0.0791
     12 H2         -0.7988    1.5302    0.5731 H         1 <0>         0.0661
     13 H3          0.8336    1.6234   -0.1177 H         1 <0>         0.0705
     14 H4         -5.7306   -0.6208   -6.2800 H         1 <0>         0.0660
     15 H5         -6.5360    0.8687   -5.6768 H         1 <0>         0.0791
     16 H6         -7.3578   -0.7013   -5.5740 H         1 <0>         0.0705
     17 H7         -2.7514    1.8740   -3.0899 H         1 <0>         0.0702
     18 H8         -1.9455    0.3833   -3.6639 H         1 <0>         0.0703
     19 H9         -4.5517    0.4667   -2.0368 H         1 <0>         0.0702
     20 H10        -3.7318   -1.0041   -2.6417 H         1 <0>         0.0703
@<TRIPOS>BOND
     1    1    3 1
     2    1    7 2
     3    1    9 1
     4    2    4 1
     5    2    8 2
     6    2   10 1
     7    5    6 1
     8    5    9 1
     9    6   10 1
    10    3   11 1
    11    3   12 1
    12    3   13 1
    13    4   14 1
    14    4   15 1
    15    4   16 1
    16    5   17 1
    17    5   18 1
    18    6   19 1
    19    6   20 1
@<TRIPOS>MOLECULE
*****
   20    19     0     0     0
SMALL
USER_CHARGES

@<TRIPOS>ATOM
      1 C1         -2.2052    1.6628   -0.7198 C.2       1 <0>         0.6513
      2 C2         -4.6138   -1.9803   -1.8639 C.2       1 <0>         0.6512
      3 C3         -1.4363    1.4094    0.5414 C.3       1 <0>        -0.1552
      4 C4         -4.2053   -3.4084   -1.6646 C.3       1 <0>        -0.1552
      5 C5         -2.5898    0.8104   -2.8899 C.3       1 <0>         0.1153
      6 C6         -3.9063    0.0606   -2.8220 C.3       1 <0>         0.1151
      7 O1         -2.9677    2.6063   -0.8795 O.2       1 <0>        -0.5383
      8 O2         -5.6642   -1.5045   -1.4545 O.2       1 <0>        -0.5384
      9 O3         -1.9187    0.6904   -1.6316 O.3       1 <0>        -0.4290
     10 O4         -3.6452   -1.3131   -2.5610 O.3       1 <0>        -0.4290
     11 H1         -0.3637    1.4410    0.3345 H         1 <0>         0.0791
     12 H2         -1.7197    0.4406    0.9603 H         1 <0>         0.0661
     13 H3         -1.6732    2.1873    1.2731 H         1 <0>         0.0705
     14 H4         -3.2802   -3.4520   -1.0845 H         1 <0>         0.0660
     15 H5         -4.0757   -3.8959   -2.6341 H         1 <0>         0.0791
     16 H6         -4.9884   -3.9358   -1.1122 H         1 <0>         0.0705
     17 H7         -2.7514    1.8740   -3.0899 H         1 <0>         0.0702
     18 H8         -1.9455    0.3833   -3.6639 H         1 <0>         0.0703
     19 H9         -4.4495    0.1303   -3.7697 H         1 <0>         0.0702
     20 H10        -4.5281    0.4514   -2.0113 H         1 <0>         0.0703
@<TRIPOS>BOND
     1    1    3 1
     2    1    7 2
     3    1    9 1
     4    2    4 1
     5    2    8 2
     6    2   10 1
     7    5    6 1
     8    5    9 1
     9    6   10 1
    10    3   11 1
    11    3   12 1
    12    3   13 1
    13    4   14 1
    14    4   15 1
    15    4   16 1
    16    5   17 1
    17    5   18 1
    18    6   19 1
    19    6   20 1
@<TRIPOS>MOLECULE
*****
   20    19     0     0     0
SMALL
USER_CHARGES

@<TRIPOS>ATOM
      1 C1         -2.2052    1.6628   -0.7198 C.2       1 <0>         0.6513
      2 C2         -5.4229    1.2704   -4.1713 C.2       1 <0>         0.6512
      3 C3         -1.4363    1.4094    0.5414 C.3       1 <0>        -0.1552
      4 C4         -6.0613    1.2861   -5.5271 C.3       1 <0>        -0.1552
      5 C5         -2.5898    0.8104   -2.8899 C.3       1 <0>         0.1153
      6 C6         -3.9063    0.0606   -2.8220 C.3       1 <0>         0.1151
      7 O1         -2.9677    2.6063   -0.8795 O.2       1 <0>        -0.5383
      8 O2         -5.6370    2.1059   -3.3034 O.2       1 <0>        -0.5384
      9 O3         -1.9187    0.6904   -1.6316 O.3       1 <0>        -0.4290
     10 O4         -4.5827    0.1970   -4.0660 O.3       1 <0>        -0.4290
     11 H1         -0.3637    1.4410    0.3345 H         1 <0>         0.0791
     12 H2         -1.7197    0.4406    0.9603 H         1 <0>         0.0661
     13 H3         -1.6732    2.1873    1.2731 H         1 <0>         0.0705
     14 H4         -6.6529    0.3783   -5.6690 H         1 <0>         0.0660
     15 H5         -5.2917    1.3693   -6.2986 H         1 <0>         0.0791
     16 H6         -6.7263    2.1512   -5.6048 H         1 <0>         0.0705
     17 H7         -2.7514    1.8740   -3.0899 H         1 <0>         0.0702
     18 H8         -1.9455    0.3833   -3.6639 H         1 <0>         0.0703
     19 H9         -4.5517    0.4667   -2.0368 H         1 <0>         0.0702
     20 H10        -3.7318   -1.0041   -2.6417 H         1 <0>         0.0703
@<TRIPOS>BOND
     1    1    3 1
     2    1    7 2
     3    1    9 1
     4    2    4 1
     5    2    8 2
     6    2   10 1
     7    5    6 1
     8    5    9 1
     9    6   10 1
    10    3   11 1
    11    3   12 1
    12    3   13 1
    13    4   14 1
    14    4   15 1
    15    4   16 1
    16    5   17 1
    17    5   18 1
    18    6   19 1
    19    6   20 1
@<TRIPOS>MOLECULE
*****
   20    19     0     0     0
SMALL
USER_CHARGES

@<TRIPOS>ATOM
      1 C1         -1.0827   -0.3802   -1.5132 C.2       1 <0>         0.6513
      2 C2         -4.7448   -2.1207   -2.4716 C.2       1 <0>         0.6512
      3 C3         -0.4537   -0.3768   -0.1530 C.3       1 <0>        -0.1552
      4 C4         -4.3196   -3.5311   -2.1961 C.3       1 <0>        -0.1552
      5 C5         -2.5898    0.8104   -2.8899 C.3       1 <0>         0.1153
      6 C6         -3.9063    0.0606   -2.8220 C.3       1 <0>         0.1151
      7 O1         -0.8615   -1.2270   -2.3683 O.2       1 <0>        -0.5383
      8 O2         -5.9099   -1.7679   -2.5948 O.2       1 <0>        -0.5384
      9 O3         -1.9187    0.6904   -1.6316 O.3       1 <0>        -0.4290
     10 O4         -3.6452   -1.3131   -2.5610 O.3       1 <0>        -0.4290
     11 H1         -1.2276   -0.4617    0.6138 H         1 <0>         0.0791
     12 H2          0.1268    0.5390   -0.0151 H         1 <0>         0.0661
     13 H3          0.2213   -1.2329   -0.0634 H         1 <0>         0.0705
     14 H4         -3.7867   -3.5784   -1.2433 H         1 <0>         0.0660
     15 H5         -3.6867   -3.8934   -3.0102 H         1 <0>         0.0791
     16 H6         -5.2046   -4.1709   -2.1328 H         1 <0>         0.0705
     17 H7         -2.7514    1.8740   -3.0899 H         1 <0>         0.0702
     18 H8         -1.9455    0.3833   -3.6639 H         1 <0>         0.0703
     19 H9         -4.4495    0.1303   -3.7697 H         1 <0>         0.0702
     20 H10        -4.5281    0.4514   -2.0113 H         1 <0>         0.0703
@<TRIPOS>BOND
     1    1    3 1
     2    1    7 2
     3    1    9 1
     4    2    4 1
     5    2    8 2
     6    2   10 1
     7    5    6 1
     8    5    9 1
     9    6   10 1
    10    3   11 1
    11    3   12 1
    12    3   13 1
    13    4   14 1
    14    4   15 1
    15    4   16 1
    16    5   17 1
    17    5   18 1
    18    6   19 1
    19    6   20 1
@<TRIPOS>MOLECULE
*****
   20    19     0     0     0
SMALL
USER_CHARGES

@<TRIPOS>ATOM
      1 C1         -2.2052    1.6628   -0.7198 C.2       1 <0>         0.6513
      2 C2         -5.9250    0.0313   -1.5940 C.2       1 <0>         0.6512
      3 C3         -1.4363    1.4094    0.5414 C.3       1 <0>        -0.1552
      4 C4         -6.6442    0.7076   -0.4665 C.3       1 <0>        -0.1552
      5 C5         -2.5898    0.8104   -2.8899 C.3       1 <0>         0.1153
      6 C6         -3.9063    0.0606   -2.8220 C.3       1 <0>         0.1151
      7 O1         -2.9677    2.6063   -0.8795 O.2       1 <0>        -0.5383
      8 O2         -6.3862   -0.8995   -2.2406 O.2       1 <0>        -0.5384
      9 O3         -1.9187    0.6904   -1.6316 O.3       1 <0>        -0.4290
     10 O4         -4.6998    0.6097   -1.7769 O.3       1 <0>        -0.4290
     11 H1         -0.3637    1.4410    0.3345 H         1 <0>         0.0791
     12 H2         -1.7197    0.4406    0.9603 H         1 <0>         0.0661
     13 H3         -1.6732    2.1873    1.2731 H         1 <0>         0.0705
     14 H4         -6.8004    1.7623   -0.7058 H         1 <0>         0.0660
     15 H5         -6.0685    0.6029    0.4566 H         1 <0>         0.0791
     16 H6         -7.6200    0.2344   -0.3231 H         1 <0>         0.0705
     17 H7         -2.7514    1.8740   -3.0899 H         1 <0>         0.0702
     18 H8         -1.9455    0.3833   -3.6639 H         1 <0>         0.0703
     19 H9         -3.7457   -1.0004   -2.6066 H         1 <0>         0.0702
     20 H10        -4.4563    0.1668   -3.7617 H         1 <0>         0.0703
@<TRIPOS>BOND
     1    1    3 1
     2    1    7 2
     3    1    9 1
     4    2    4 1
     5    2    8 2
     6    2   10 1
     7    5    6 1
     8    5    9 1
     9    6   10 1
    10    3   11 1
    11    3   12 1
    12    3   13 1
    13    4   14 1
    14    4   15 1
    15    4   16 1
    16    5   17 1
    17    5   18 1
    18    6   19 1
    19    6   20 1
@<TRIPOS>MOLECULE
*****
   20    19     0     0     0
SMALL
USER_CHARGES

@<TRIPOS>ATOM
      1 C1         -0.5568    0.7190   -1.6890 C.2       1 <0>         0.6513
      2 C2         -4.3079   -0.7625   -5.0003 C.2       1 <0>         0.6512
      3 C3          0.0059    0.5849   -0.3064 C.3       1 <0>        -0.1552
      4 C4         -5.0871   -0.4926   -6.2517 C.3       1 <0>        -0.1552
      5 C5         -2.5898    0.8104   -2.8899 C.3       1 <0>         0.1153
      6 C6         -3.9063    0.0606   -2.8220 C.3       1 <0>         0.1151
      7 O1          0.1254    0.8355   -2.6980 O.2       1 <0>        -0.5383
      8 O2         -3.5449   -1.7086   -4.8589 O.2       1 <0>        -0.5384
      9 O3         -1.9187    0.6904   -1.6316 O.3       1 <0>        -0.4290
     10 O4         -4.5827    0.1970   -4.0660 O.3       1 <0>        -0.4290
     11 H1         -0.2974   -0.3717    0.1263 H         1 <0>         0.0791
     12 H2         -0.3369    1.4154    0.3158 H         1 <0>         0.0661
     13 H3          1.0983    0.6148   -0.3550 H         1 <0>         0.0705
     14 H4         -4.7983    0.4763   -6.6667 H         1 <0>         0.0660
     15 H5         -6.1579   -0.5150   -6.0341 H         1 <0>         0.0791
     16 H6         -4.8663   -1.2682   -6.9908 H         1 <0>         0.0705
     17 H7         -2.7514    1.8740   -3.0899 H         1 <0>         0.0702
     18 H8         -1.9455    0.3833   -3.6639 H         1 <0>         0.0703
     19 H9         -4.5517    0.4667   -2.0368 H         1 <0>         0.0702
     20 H10        -3.7318   -1.0041   -2.6417 H         1 <0>         0.0703
@<TRIPOS>BOND
     1    1    3 1
     2    1    7 2
     3    1    9 1
     4    2    4 1
     5    2    8 2
     6    2   10 1
     7    5    6 1
     8    5    9 1
     9    6   10 1
    10    3   11 1
    11    3   12 1
    12    3   13 1
    13    4   14 1
    14    4   15 1
    15    4   16 1
    16    5   17 1
    17    5   18 1
    18    6   19 1
    19    6   20 1
@<TRIPOS>MOLECULE
*****
   20    19     0     0     0
SMALL
USER_CHARGES

@<TRIPOS>ATOM
      1 C1         -1.0827   -0.3802   -1.5132 C.2       1 <0>         0.6513
      2 C2         -4.5358    0.0409   -0.5445 C.2       1 <0>         0.6512
      3 C3          0.0374   -0.0402   -0.5774 C.3       1 <0>        -0.1552
      4 C4         -5.4290    0.7168    0.4512 C.3       1 <0>        -0.1552
      5 C5         -2.5898    0.8104   -2.8899 C.3       1 <0>         0.1153
      6 C6         -3.9063    0.0606   -2.8220 C.3       1 <0>         0.1151
      7 O1         -1.2040   -1.4617   -2.0726 O.2       1 <0>        -0.5383
      8 O2         -3.7796   -0.8814   -0.2713 O.2       1 <0>        -0.5384
      9 O3         -1.9187    0.6904   -1.6316 O.3       1 <0>        -0.4290
     10 O4         -4.6998    0.6097   -1.7769 O.3       1 <0>        -0.4290
     11 H1         -0.3635    0.1907    0.4125 H         1 <0>         0.0791
     12 H2          0.6051    0.8068   -0.9707 H         1 <0>         0.0661
     13 H3          0.7098   -0.8986   -0.4897 H         1 <0>         0.0705
     14 H4         -6.4740    0.5914    0.1571 H         1 <0>         0.0660
     15 H5         -5.1724    1.7770    0.5200 H         1 <0>         0.0791
     16 H6         -5.2865    0.2601    1.4349 H         1 <0>         0.0705
     17 H7         -2.7514    1.8740   -3.0899 H         1 <0>         0.0702
     18 H8         -1.9455    0.3833   -3.6639 H         1 <0>         0.0703
     19 H9         -3.7457   -1.0004   -2.6066 H         1 <0>         0.0702
     20 H10        -4.4563    0.1668   -3.7617 H         1 <0>         0.0703
@<TRIPOS>BOND
     1    1    3 1
     2    1    7 2
     3    1    9 1
     4    2    4 1
     5    2    8 2
     6    2   10 1
     7    5    6 1
     8    5    9 1
     9    6   10 1
    10    3   11 1
    11    3   12 1
    12    3   13 1
    13    4   14 1
    14    4   15 1
    15    4   16 1
    16    5   17 1
    17    5   18 1
    18    6   19 1
    19    6   20 1
@<TRIPOS>MOLECULE
*****
   20    19     0     0     0
SMALL
USER_CHARGES

@<TRIPOS>ATOM
      1 C1         -2.2052    1.6628   -0.7198 C.2       1 <0>         0.6513
      2 C2         -4.5358    0.0409   -0.5445 C.2       1 <0>         0.6512
      3 C3         -1.4363    1.4094    0.5414 C.3       1 <0>        -0.1552
      4 C4         -5.4290    0.7168    0.4512 C.3       1 <0>        -0.1552
      5 C5         -2.5898    0.8104   -2.8899 C.3       1 <0>         0.1153
      6 C6         -3.9063    0.0606   -2.8220 C.3       1 <0>         0.1151
      7 O1         -2.9677    2.6063   -0.8795 O.2       1 <0>        -0.5383
      8 O2         -3.7796   -0.8814   -0.2713 O.2       1 <0>        -0.5384
      9 O3         -1.9187    0.6904   -1.6316 O.3       1 <0>        -0.4290
     10 O4         -4.6998    0.6097   -1.7769 O.3       1 <0>        -0.4290
     11 H1         -0.3637    1.4410    0.3345 H         1 <0>         0.0791
     12 H2         -1.7197    0.4406    0.9603 H         1 <0>         0.0661
     13 H3         -1.6732    2.1873    1.2731 H         1 <0>         0.0705
     14 H4         -6.4740    0.5914    0.1571 H         1 <0>         0.0660
     15 H5         -5.1724    1.7770    0.5200 H         1 <0>         0.0791
     16 H6         -5.2865    0.2601    1.4349 H         1 <0>         0.0705
     17 H7         -2.7514    1.8740   -3.0899 H         1 <0>         0.0702
     18 H8         -1.9455    0.3833   -3.6639 H         1 <0>         0.0703
     19 H9         -3.7457   -1.0004   -2.6066 H         1 <0>         0.0702
     20 H10        -4.4563    0.1668   -3.7617 H         1 <0>         0.0703
@<TRIPOS>BOND
     1    1    3 1
     2    1    7 2
     3    1    9 1
     4    2    4 1
     5    2    8 2
     6    2   10 1
     7    5    6 1
     8    5    9 1
     9    6   10 1
    10    3   11 1
    11    3   12 1
    12    3   13 1
    13    4   14 1
    14    4   15 1
    15    4   16 1
    16    5   17 1
    17    5   18 1
    18    6   19 1
    19    6   20 1
@<TRIPOS>MOLECULE
*****
   20    19     0     0     0
SMALL
USER_CHARGES

@<TRIPOS>ATOM
      1 C1         -1.0827   -0.3802   -1.5132 C.2       1 <0>         0.6513
      2 C2         -3.5980   -1.6690   -1.2418 C.2       1 <0>         0.6512
      3 C3         -0.4537   -0.3768   -0.1530 C.3       1 <0>        -0.1552
      4 C4         -3.3172   -3.1361   -1.1200 C.3       1 <0>        -0.1552
      5 C5         -2.5898    0.8104   -2.8899 C.3       1 <0>         0.1153
      6 C6         -3.9063    0.0606   -2.8220 C.3       1 <0>         0.1151
      7 O1         -0.8615   -1.2270   -2.3683 O.2       1 <0>        -0.5383
      8 O2         -3.7582   -0.9204   -0.2872 O.2       1 <0>        -0.5384
      9 O3         -1.9187    0.6904   -1.6316 O.3       1 <0>        -0.4290
     10 O4         -3.6452   -1.3131   -2.5610 O.3       1 <0>        -0.4290
     11 H1         -1.2276   -0.4617    0.6138 H         1 <0>         0.0791
     12 H2          0.1268    0.5390   -0.0151 H         1 <0>         0.0661
     13 H3          0.2213   -1.2329   -0.0634 H         1 <0>         0.0705
     14 H4         -2.3472   -3.3664   -1.5674 H         1 <0>         0.0660
     15 H5         -4.1117   -3.7075   -1.6065 H         1 <0>         0.0791
     16 H6         -3.2877   -3.4130   -0.0621 H         1 <0>         0.0705
     17 H7         -2.7514    1.8740   -3.0899 H         1 <0>         0.0702
     18 H8         -1.9455    0.3833   -3.6639 H         1 <0>         0.0703
     19 H9         -4.4495    0.1303   -3.7697 H         1 <0>         0.0702
     20 H10        -4.5281    0.4514   -2.0113 H         1 <0>         0.0703
@<TRIPOS>BOND
     1    1    3 1
     2    1    7 2
     3    1    9 1
     4    2    4 1
     5    2    8 2
     6    2   10 1
     7    5    6 1
     8    5    9 1
     9    6   10 1
    10    3   11 1
    11    3   12 1
    12    3   13 1
    13    4   14 1
    14    4   15 1
    15    4   16 1
    16    5   17 1
    17    5   18 1
    18    6   19 1
    19    6   20 1
@<TRIPOS>MOLECULE
*****
   20    19     0     0     0
SMALL
USER_CHARGES

@<TRIPOS>ATOM
      1 C1         -0.5568    0.7190   -1.6890 C.2       1 <0>         0.6513
      2 C2         -4.8839    1.4765   -4.4418 C.2       1 <0>         0.6512
      3 C3          0.0093   -0.0981   -0.5674 C.3       1 <0>        -0.1552
      4 C4         -4.8903    1.5799   -5.9369 C.3       1 <0>        -0.1552
      5 C5         -2.5898    0.8104   -2.8899 C.3       1 <0>         0.1153
      6 C6         -3.9063    0.0606   -2.8220 C.3       1 <0>         0.1151
      7 O1          0.1231    1.3116   -2.5159 O.2       1 <0>        -0.5383
      8 O2         -5.1164    2.4129   -3.6892 O.2       1 <0>        -0.5384
      9 O3         -1.9187    0.6904   -1.6316 O.3       1 <0>        -0.4290
     10 O4         -4.5827    0.1970   -4.0660 O.3       1 <0>        -0.4290
     11 H1         -0.3146   -1.1372   -0.6653 H         1 <0>         0.0791
     12 H2         -0.3106    0.3167    0.3919 H         1 <0>         0.0661
     13 H3          1.1018   -0.0678   -0.6122 H         1 <0>         0.0705
     14 H4         -5.6538    0.9170   -6.3512 H         1 <0>         0.0660
     15 H5         -3.9032    1.3245   -6.3306 H         1 <0>         0.0791
     16 H6         -5.1254    2.6077   -6.2283 H         1 <0>         0.0705
     17 H7         -2.7514    1.8740   -3.0899 H         1 <0>         0.0702
     18 H8         -1.9455    0.3833   -3.6639 H         1 <0>         0.0703
     19 H9         -4.5517    0.4667   -2.0368 H         1 <0>         0.0702
     20 H10        -3.7318   -1.0041   -2.6417 H         1 <0>         0.0703
@<TRIPOS>BOND
     1    1    3 1
     2    1    7 2
     3    1    9 1
     4    2    4 1
     5    2    8 2
     6    2   10 1
     7    5    6 1
     8    5    9 1
     9    6   10 1
    10    3   11 1
    11    3   12 1
    12    3   13 1
    13    4   14 1
    14    4   15 1
    15    4   16 1
    16    5   17 1
    17    5   18 1
    18    6   19 1
    19    6   20 1
@<TRIPOS>MOLECULE
*****
   20    19     0     0     0
SMALL
USER_CHARGES

@<TRIPOS>ATOM
      1 C1         -1.0827   -0.3802   -1.5132 C.2       1 <0>         0.6513
      2 C2         -5.0137    1.9345   -1.9021 C.2       1 <0>         0.6512
      3 C3         -1.0310   -0.8196   -0.0813 C.3       1 <0>        -0.1552
      4 C4         -5.1671    2.5518   -0.5451 C.3       1 <0>        -0.1552
      5 C5         -2.5898    0.8104   -2.8899 C.3       1 <0>         0.1153
      6 C6         -3.9063    0.0606   -2.8220 C.3       1 <0>         0.1151
      7 O1         -0.4590   -0.9182   -2.4180 O.2       1 <0>        -0.5383
      8 O2         -5.1541    2.5456   -2.9528 O.2       1 <0>        -0.5384
      9 O3         -1.9187    0.6904   -1.6316 O.3       1 <0>        -0.4290
     10 O4         -4.6998    0.6097   -1.7769 O.3       1 <0>        -0.4290
     11 H1         -2.0266   -1.1260    0.2488 H         1 <0>         0.0791
     12 H2         -0.6510   -0.0067    0.5426 H         1 <0>         0.0661
     13 H3         -0.3546   -1.6743    0.0114 H         1 <0>         0.0705
     14 H4         -4.2256    2.4778    0.0046 H         1 <0>         0.0660
     15 H5         -5.9723    2.0532    0.0004 H         1 <0>         0.0791
     16 H6         -5.4246    3.6093   -0.6549 H         1 <0>         0.0705
     17 H7         -2.7514    1.8740   -3.0899 H         1 <0>         0.0702
     18 H8         -1.9455    0.3833   -3.6639 H         1 <0>         0.0703
     19 H9         -3.7457   -1.0004   -2.6066 H         1 <0>         0.0702
     20 H10        -4.4563    0.1668   -3.7617 H         1 <0>         0.0703
@<TRIPOS>BOND
     1    1    3 1
     2    1    7 2
     3    1    9 1
     4    2    4 1
     5    2    8 2
     6    2   10 1
     7    5    6 1
     8    5    9 1
     9    6   10 1
    10    3   11 1
    11    3   12 1
    12    3   13 1
    13    4   14 1
    14    4   15 1
    15    4   16 1
    16    5   17 1
    17    5   18 1
    18    6   19 1
    19    6   20 1
@<TRIPOS>MOLECULE
*****
   20    19     0     0     0
SMALL
USER_CHARGES

@<TRIPOS>ATOM
      1 C1         -2.5958    1.1861   -0.5570 C.2       1 <0>         0.6513
      2 C2         -2.8782   -1.9594   -3.4900 C.2       1 <0>         0.6512
      3 C3         -2.2225    0.4123    0.6710 C.3       1 <0>        -0.1552
      4 C4         -2.0925   -3.0520   -2.8305 C.3       1 <0>        -0.1552
      5 C5         -2.5898    0.8104   -2.8899 C.3       1 <0>         0.1153
      6 C6         -3.9063    0.0606   -2.8220 C.3       1 <0>         0.1151
      7 O1         -3.3904    2.1165   -0.5653 O.2       1 <0>        -0.5383
      8 O2         -2.8243   -1.7022   -4.6851 O.2       1 <0>        -0.5384
      9 O3         -1.9187    0.6904   -1.6316 O.3       1 <0>        -0.4290
     10 O4         -3.6452   -1.3131   -2.5610 O.3       1 <0>        -0.4290
     11 H1         -1.1520    0.5169    0.8642 H         1 <0>         0.0791
     12 H2         -2.4900   -0.6396    0.5421 H         1 <0>         0.0661
     13 H3         -2.7721    0.8080    1.5300 H         1 <0>         0.0705
     14 H4         -2.7733   -3.7824   -2.3866 H         1 <0>         0.0660
     15 H5         -1.4332   -2.6272   -2.0693 H         1 <0>         0.0791
     16 H6         -1.4772   -3.5590   -3.5794 H         1 <0>         0.0705
     17 H7         -2.7514    1.8740   -3.0899 H         1 <0>         0.0702
     18 H8         -1.9455    0.3833   -3.6639 H         1 <0>         0.0703
     19 H9         -4.4495    0.1303   -3.7697 H         1 <0>         0.0702
     20 H10        -4.5281    0.4514   -2.0113 H         1 <0>         0.0703
@<TRIPOS>BOND
     1    1    3 1
     2    1    7 2
     3    1    9 1
     4    2    4 1
     5    2    8 2
     6    2   10 1
     7    5    6 1
     8    5    9 1
     9    6   10 1
    10    3   11 1
    11    3   12 1
    12    3   13 1
    13    4   14 1
    14    4   15 1
    15    4   16 1
    16    5   17 1
    17    5   18 1
    18    6   19 1
    19    6   20 1
@<TRIPOS>MOLECULE
*****
   20    19     0     0     0
SMALL
USER_CHARGES

@<TRIPOS>ATOM
      1 C1         -2.2052    1.6628   -0.7198 C.2       1 <0>         0.6513
      2 C2         -4.5519   -2.1985   -3.0740 C.2       1 <0>         0.6512
      3 C3         -0.9477    2.3896   -0.3505 C.3       1 <0>        -0.1552
      4 C4         -4.1506   -3.5991   -2.7229 C.3       1 <0>        -0.1552
      5 C5         -2.5898    0.8104   -2.8899 C.3       1 <0>         0.1153
      6 C6         -3.9063    0.0606   -2.8220 C.3       1 <0>         0.1151
      7 O1         -3.3079    1.9229   -0.2576 O.2       1 <0>        -0.5383
      8 O2         -5.5480   -1.9140   -3.7251 O.2       1 <0>        -0.5384
      9 O3         -1.9187    0.6904   -1.6316 O.3       1 <0>        -0.4290
     10 O4         -3.6452   -1.3131   -2.5610 O.3       1 <0>        -0.4290
     11 H1         -0.5217    2.8672   -1.2362 H         1 <0>         0.0791
     12 H2         -0.2327    1.6921    0.0930 H         1 <0>         0.0661
     13 H3         -1.1798    3.1646    0.3859 H         1 <0>         0.0705
     14 H4         -4.1371   -3.7198   -1.6369 H         1 <0>         0.0660
     15 H5         -3.1684   -3.8210   -3.1478 H         1 <0>         0.0791
     16 H6         -4.8774   -4.3006   -3.1427 H         1 <0>         0.0705
     17 H7         -2.7514    1.8740   -3.0899 H         1 <0>         0.0702
     18 H8         -1.9455    0.3833   -3.6639 H         1 <0>         0.0703
     19 H9         -4.4495    0.1303   -3.7697 H         1 <0>         0.0702
     20 H10        -4.5281    0.4514   -2.0113 H         1 <0>         0.0703
@<TRIPOS>BOND
     1    1    3 1
     2    1    7 2
     3    1    9 1
     4    2    4 1
     5    2    8 2
     6    2   10 1
     7    5    6 1
     8    5    9 1
     9    6   10 1
    10    3   11 1
    11    3   12 1
    12    3   13 1
    13    4   14 1
    14    4   15 1
    15    4   16 1
    16    5   17 1
    17    5   18 1
    18    6   19 1
    19    6   20 1
@<TRIPOS>MOLECULE
*****
   20    19     0     0     0
SMALL
USER_CHARGES

@<TRIPOS>ATOM
      1 C1         -2.2052    1.6628   -0.7198 C.2       1 <0>         0.6513
      2 C2         -3.9183   -0.2841   -5.1597 C.2       1 <0>         0.6512
      3 C3         -1.0190    1.8808    0.1697 C.3       1 <0>        -0.1552
      4 C4         -3.6879    0.8232   -6.1431 C.3       1 <0>        -0.1552
      5 C5         -2.5898    0.8104   -2.8899 C.3       1 <0>         0.1153
      6 C6         -3.9063    0.0606   -2.8220 C.3       1 <0>         0.1151
      7 O1         -3.2585    2.2776   -0.6203 O.2       1 <0>        -0.5383
      8 O2         -3.5565   -1.4401   -5.3324 O.2       1 <0>        -0.5384
      9 O3         -1.9187    0.6904   -1.6316 O.3       1 <0>        -0.4290
     10 O4         -4.5827    0.1970   -4.0660 O.3       1 <0>        -0.4290
     11 H1         -0.1648    2.2125   -0.4258 H         1 <0>         0.0791
     12 H2         -0.7812    0.9575    0.7040 H         1 <0>         0.0661
     13 H3         -1.2542    2.6567    0.9041 H         1 <0>         0.0705
     14 H4         -3.0706    1.6014   -5.6875 H         1 <0>         0.0660
     15 H5         -4.6463    1.2338   -6.4707 H         1 <0>         0.0791
     16 H6         -3.1620    0.4282   -7.0172 H         1 <0>         0.0705
     17 H7         -2.7514    1.8740   -3.0899 H         1 <0>         0.0702
     18 H8         -1.9455    0.3833   -3.6639 H         1 <0>         0.0703
     19 H9         -4.5517    0.4667   -2.0368 H         1 <0>         0.0702
     20 H10        -3.7318   -1.0041   -2.6417 H         1 <0>         0.0703
@<TRIPOS>BOND
     1    1    3 1
     2    1    7 2
     3    1    9 1
     4    2    4 1
     5    2    8 2
     6    2   10 1
     7    5    6 1
     8    5    9 1
     9    6   10 1
    10    3   11 1
    11    3   12 1
    12    3   13 1
    13    4   14 1
    14    4   15 1
    15    4   16 1
    16    5   17 1
    17    5   18 1
    18    6   19 1
    19    6   20 1
@<TRIPOS>MOLECULE
*****
   20    19     0     0     0
SMALL
USER_CHARGES

@<TRIPOS>ATOM
      1 C1         -1.0827   -0.3802   -1.5132 C.2       1 <0>         0.6513
      2 C2         -4.8839    1.4765   -4.4418 C.2       1 <0>         0.6512
      3 C3          0.0374   -0.0402   -0.5774 C.3       1 <0>        -0.1552
      4 C4         -4.2190    1.7937   -5.7469 C.3       1 <0>        -0.1552
      5 C5         -2.5898    0.8104   -2.8899 C.3       1 <0>         0.1153
      6 C6         -3.9063    0.0606   -2.8220 C.3       1 <0>         0.1151
      7 O1         -1.2040   -1.4617   -2.0726 O.2       1 <0>        -0.5383
      8 O2         -5.5874    2.2629   -3.8223 O.2       1 <0>        -0.5384
      9 O3         -1.9187    0.6904   -1.6316 O.3       1 <0>        -0.4290
     10 O4         -4.5827    0.1970   -4.0660 O.3       1 <0>        -0.4290
     11 H1         -0.3635    0.1907    0.4125 H         1 <0>         0.0791
     12 H2          0.6051    0.8068   -0.9707 H         1 <0>         0.0661
     13 H3          0.7098   -0.8986   -0.4897 H         1 <0>         0.0705
     14 H4         -4.5853    1.1179   -6.5236 H         1 <0>         0.0660
     15 H5         -3.1346    1.7079   -5.6413 H         1 <0>         0.0791
     16 H6         -4.4598    2.8207   -6.0364 H         1 <0>         0.0705
     17 H7         -2.7514    1.8740   -3.0899 H         1 <0>         0.0702
     18 H8         -1.9455    0.3833   -3.6639 H         1 <0>         0.0703
     19 H9         -4.5517    0.4667   -2.0368 H         1 <0>         0.0702
     20 H10        -3.7318   -1.0041   -2.6417 H         1 <0>         0.0703
@<TRIPOS>BOND
     1    1    3 1
     2    1    7 2
     3    1    9 1
     4    2    4 1
     5    2    8 2
     6    2   10 1
     7    5    6 1
     8    5    9 1
     9    6   10 1
    10    3   11 1
    11    3   12 1
    12    3   13 1
    13    4   14 1
    14    4   15 1
    15    4   16 1
    16    5   17 1
    17    5   18 1
    18    6   19 1
    19    6   20 1
@<TRIPOS>MOLECULE
*****
   20    19     0     0     0
SMALL
USER_CHARGES

@<TRIPOS>ATOM
      1 C1         -1.0827   -0.3802   -1.5132 C.2       1 <0>         0.6513
      2 C2         -2.8782   -1.9594   -3.4900 C.2       1 <0>         0.6512
      3 C3         -0.4537   -0.3768   -0.1530 C.3       1 <0>        -0.1552
      4 C4         -2.6866   -3.3898   -3.0860 C.3       1 <0>        -0.1552
      5 C5         -2.5898    0.8104   -2.8899 C.3       1 <0>         0.1153
      6 C6         -3.9063    0.0606   -2.8220 C.3       1 <0>         0.1151
      7 O1         -0.8615   -1.2270   -2.3683 O.2       1 <0>        -0.5383
      8 O2         -2.4075   -1.4654   -4.5057 O.2       1 <0>        -0.5384
      9 O3         -1.9187    0.6904   -1.6316 O.3       1 <0>        -0.4290
     10 O4         -3.6452   -1.3131   -2.5610 O.3       1 <0>        -0.4290
     11 H1         -1.2276   -0.4617    0.6138 H         1 <0>         0.0791
     12 H2          0.1268    0.5390   -0.0151 H         1 <0>         0.0661
     13 H3          0.2213   -1.2329   -0.0634 H         1 <0>         0.0705
     14 H4         -3.6547   -3.8941   -3.0366 H         1 <0>         0.0660
     15 H5         -2.1774   -3.4374   -2.1200 H         1 <0>         0.0791
     16 H6         -2.0667   -3.8972   -3.8310 H         1 <0>         0.0705
     17 H7         -2.7514    1.8740   -3.0899 H         1 <0>         0.0702
     18 H8         -1.9455    0.3833   -3.6639 H         1 <0>         0.0703
     19 H9         -4.4495    0.1303   -3.7697 H         1 <0>         0.0702
     20 H10        -4.5281    0.4514   -2.0113 H         1 <0>         0.0703
@<TRIPOS>BOND
     1    1    3 1
     2    1    7 2
     3    1    9 1
     4    2    4 1
     5    2    8 2
     6    2   10 1
     7    5    6 1
     8    5    9 1
     9    6   10 1
    10    3   11 1
    11    3   12 1
    12    3   13 1
    13    4   14 1
    14    4   15 1
    15    4   16 1
    16    5   17 1
    17    5   18 1
    18    6   19 1
    19    6   20 1
@<TRIPOS>MOLECULE
*****
   20    19     0     0     0
SMALL
USER_CHARGES

@<TRIPOS>ATOM
      1 C1         -1.1180    1.7405   -1.2922 C.2       1 <0>         0.6513
      2 C2         -5.0137    1.9345   -1.9021 C.2       1 <0>         0.6512
      3 C3         -1.0767    1.8775    0.1996 C.3       1 <0>        -0.1552
      4 C4         -4.4766    2.6980   -0.7297 C.3       1 <0>        -0.1552
      5 C5         -2.5898    0.8104   -2.8899 C.3       1 <0>         0.1153
      6 C6         -3.9063    0.0606   -2.8220 C.3       1 <0>         0.1151
      7 O1         -0.5154    2.4737   -2.0646 O.2       1 <0>        -0.5383
      8 O2         -5.6385    2.4431   -2.8230 O.2       1 <0>        -0.5384
      9 O3         -1.9187    0.6904   -1.6316 O.3       1 <0>        -0.4290
     10 O4         -4.6998    0.6097   -1.7769 O.3       1 <0>        -0.4290
     11 H1         -0.6576    0.9713    0.6438 H         1 <0>         0.0791
     12 H2         -2.0829    2.0649    0.5829 H         1 <0>         0.0661
     13 H3         -0.4390    2.7246    0.4684 H         1 <0>         0.0705
     14 H4         -3.3878    2.6100   -0.6972 H         1 <0>         0.0660
     15 H5         -4.9217    2.3205    0.1943 H         1 <0>         0.0791
     16 H6         -4.7379    3.7551   -0.8349 H         1 <0>         0.0705
     17 H7         -2.7514    1.8740   -3.0899 H         1 <0>         0.0702
     18 H8         -1.9455    0.3833   -3.6639 H         1 <0>         0.0703
     19 H9         -3.7457   -1.0004   -2.6066 H         1 <0>         0.0702
     20 H10        -4.4563    0.1668   -3.7617 H         1 <0>         0.0703
@<TRIPOS>BOND
     1    1    3 1
     2    1    7 2
     3    1    9 1
     4    2    4 1
     5    2    8 2
     6    2   10 1
     7    5    6 1
     8    5    9 1
     9    6   10 1
    10    3   11 1
    11    3   12 1
    12    3   13 1
    13    4   14 1
    14    4   15 1
    15    4   16 1
    16    5   17 1
    17    5   18 1
    18    6   19 1
    19    6   20 1
@<TRIPOS>MOLECULE
*****
   20    19     0     0     0
SMALL
USER_CHARGES

@<TRIPOS>ATOM
      1 C1         -1.1180    1.7405   -1.2922 C.2       1 <0>         0.6513
      2 C2         -4.6138   -1.9803   -1.8639 C.2       1 <0>         0.6512
      3 C3         -1.6003    2.3437   -0.0079 C.3       1 <0>        -0.1552
      4 C4         -5.1362   -3.1212   -2.6833 C.3       1 <0>        -0.1552
      5 C5         -2.5898    0.8104   -2.8899 C.3       1 <0>         0.1153
      6 C6         -3.9063    0.0606   -2.8220 C.3       1 <0>         0.1151
      7 O1         -0.1504    2.1486   -1.9201 O.2       1 <0>        -0.5383
      8 O2         -5.0112   -1.7056   -0.7397 O.2       1 <0>        -0.5384
      9 O3         -1.9187    0.6904   -1.6316 O.3       1 <0>        -0.4290
     10 O4         -3.6452   -1.3131   -2.5610 O.3       1 <0>        -0.4290
     11 H1         -1.5480    1.6020    0.7929 H         1 <0>         0.0791
     12 H2         -2.6236    2.7076   -0.1302 H         1 <0>         0.0661
     13 H3         -0.9600    3.1898    0.2583 H         1 <0>         0.0705
     14 H4         -4.3280   -3.8249   -2.8972 H         1 <0>         0.0660
     15 H5         -5.5731   -2.7424   -3.6107 H         1 <0>         0.0791
     16 H6         -5.9147   -3.6450   -2.1209 H         1 <0>         0.0705
     17 H7         -2.7514    1.8740   -3.0899 H         1 <0>         0.0702
     18 H8         -1.9455    0.3833   -3.6639 H         1 <0>         0.0703
     19 H9         -4.4495    0.1303   -3.7697 H         1 <0>         0.0702
     20 H10        -4.5281    0.4514   -2.0113 H         1 <0>         0.0703
@<TRIPOS>BOND
     1    1    3 1
     2    1    7 2
     3    1    9 1
     4    2    4 1
     5    2    8 2
     6    2   10 1
     7    5    6 1
     8    5    9 1
     9    6   10 1
    10    3   11 1
    11    3   12 1
    12    3   13 1
    13    4   14 1
    14    4   15 1
    15    4   16 1
    16    5   17 1
    17    5   18 1
    18    6   19 1
    19    6   20 1
@<TRIPOS>MOLECULE
*****
   20    19     0     0     0
SMALL
USER_CHARGES

@<TRIPOS>ATOM
      1 C1         -0.6922    0.0964   -1.6761 C.2       1 <0>         0.6513
      2 C2         -4.1940   -1.8149   -1.4138 C.2       1 <0>         0.6512
      3 C3          0.3456    1.0512   -1.1689 C.3       1 <0>        -0.1552
      4 C4         -5.1258   -2.9410   -1.7453 C.3       1 <0>        -0.1552
      5 C5         -2.5898    0.8104   -2.8899 C.3       1 <0>         0.1153
      6 C6         -3.9063    0.0606   -2.8220 C.3       1 <0>         0.1151
      7 O1         -0.4482   -1.0377   -2.0651 O.2       1 <0>        -0.5383
      8 O2         -3.9734   -1.4204   -0.2767 O.2       1 <0>        -0.5384
      9 O3         -1.9187    0.6904   -1.6316 O.3       1 <0>        -0.4290
     10 O4         -3.6452   -1.3131   -2.5610 O.3       1 <0>        -0.4290
     11 H1          0.1314    1.3145   -0.1302 H         1 <0>         0.0791
     12 H2          0.3655    1.9454   -1.7970 H         1 <0>         0.0661
     13 H3          1.3291    0.5743   -1.2120 H         1 <0>         0.0705
     14 H4         -4.5743   -3.7462   -2.2369 H         1 <0>         0.0660
     15 H5         -5.9323   -2.5782   -2.3875 H         1 <0>         0.0791
     16 H6         -5.5650   -3.3318   -0.8228 H         1 <0>         0.0705
     17 H7         -2.7514    1.8740   -3.0899 H         1 <0>         0.0702
     18 H8         -1.9455    0.3833   -3.6639 H         1 <0>         0.0703
     19 H9         -4.4495    0.1303   -3.7697 H         1 <0>         0.0702
     20 H10        -4.5281    0.4514   -2.0113 H         1 <0>         0.0703
@<TRIPOS>BOND
     1    1    3 1
     2    1    7 2
     3    1    9 1
     4    2    4 1
     5    2    8 2
     6    2   10 1
     7    5    6 1
     8    5    9 1
     9    6   10 1
    10    3   11 1
    11    3   12 1
    12    3   13 1
    13    4   14 1
    14    4   15 1
    15    4   16 1
    16    5   17 1
    17    5   18 1
    18    6   19 1
    19    6   20 1
@<TRIPOS>MOLECULE
*****
   20    19     0     0     0
SMALL
USER_CHARGES

@<TRIPOS>ATOM
      1 C1         -1.6644    1.8657   -0.9889 C.2       1 <0>         0.6513
      2 C2         -5.0490   -0.2561   -0.7781 C.2       1 <0>         0.6512
      3 C3         -0.1867    2.0193   -0.7917 C.3       1 <0>        -0.1552
      4 C4         -6.5417   -0.3585   -0.6918 C.3       1 <0>        -0.1552
      5 C5         -2.5898    0.8104   -2.8899 C.3       1 <0>         0.1153
      6 C6         -3.9063    0.0606   -2.8220 C.3       1 <0>         0.1151
      7 O1         -2.4939    2.6855   -0.6190 O.2       1 <0>        -0.5383
      8 O2         -4.2772   -0.8666   -0.0509 O.2       1 <0>        -0.5384
      9 O3         -1.9187    0.6904   -1.6316 O.3       1 <0>        -0.4290
     10 O4         -4.6998    0.6097   -1.7769 O.3       1 <0>        -0.4290
     11 H1          0.3163    2.0449   -1.7615 H         1 <0>         0.0791
     12 H2          0.1937    1.1961   -0.1817 H         1 <0>         0.0661
     13 H3          0.0137    2.9598   -0.2701 H         1 <0>         0.0705
     14 H4         -6.9417   -0.7470   -1.6315 H         1 <0>         0.0660
     15 H5         -6.9684    0.6224   -0.4674 H         1 <0>         0.0791
     16 H6         -6.8119   -1.0476    0.1136 H         1 <0>         0.0705
     17 H7         -2.7514    1.8740   -3.0899 H         1 <0>         0.0702
     18 H8         -1.9455    0.3833   -3.6639 H         1 <0>         0.0703
     19 H9         -3.7457   -1.0004   -2.6066 H         1 <0>         0.0702
     20 H10        -4.4563    0.1668   -3.7617 H         1 <0>         0.0703
@<TRIPOS>BOND
     1    1    3 1
     2    1    7 2
     3    1    9 1
     4    2    4 1
     5    2    8 2
     6    2   10 1
     7    5    6 1
     8    5    9 1
     9    6   10 1
    10    3   11 1
    11    3   12 1
    12    3   13 1
    13    4   14 1
    14    4   15 1
    15    4   16 1
    16    5   17 1
    17    5   18 1
    18    6   19 1
    19    6   20 1
@<TRIPOS>MOLECULE
*****
   20    19     0     0     0
SMALL
USER_CHARGES

@<TRIPOS>ATOM
      1 C1         -1.6644    1.8657   -0.9889 C.2       1 <0>         0.6513
      2 C2         -5.8125    0.7919   -4.0119 C.2       1 <0>         0.6512
      3 C3         -2.3475    1.8654    0.3450 C.3       1 <0>        -0.1552
      4 C4         -5.8153    2.0324   -4.8528 C.3       1 <0>        -0.1552
      5 C5         -2.5898    0.8104   -2.8899 C.3       1 <0>         0.1153
      6 C6         -3.9063    0.0606   -2.8220 C.3       1 <0>         0.1151
      7 O1         -0.9878    2.7932   -1.4120 O.2       1 <0>        -0.5383
      8 O2         -6.7799    0.3909   -3.3790 O.2       1 <0>        -0.5384
      9 O3         -1.9187    0.6904   -1.6316 O.3       1 <0>        -0.4290
     10 O4         -4.5827    0.1970   -4.0660 O.3       1 <0>        -0.4290
     11 H1         -1.9600    1.0494    0.9600 H         1 <0>         0.0791
     12 H2         -3.4273    1.7662    0.2087 H         1 <0>         0.0661
     13 H3         -2.1470    2.8120    0.8553 H         1 <0>         0.0705
     14 H4         -5.6097    1.7748   -5.8946 H         1 <0>         0.0660
     15 H5         -5.0704    2.7378   -4.4758 H         1 <0>         0.0791
     16 H6         -6.8003    2.5051   -4.7984 H         1 <0>         0.0705
     17 H7         -2.7514    1.8740   -3.0899 H         1 <0>         0.0702
     18 H8         -1.9455    0.3833   -3.6639 H         1 <0>         0.0703
     19 H9         -4.5517    0.4667   -2.0368 H         1 <0>         0.0702
     20 H10        -3.7318   -1.0041   -2.6417 H         1 <0>         0.0703
@<TRIPOS>BOND
     1    1    3 1
     2    1    7 2
     3    1    9 1
     4    2    4 1
     5    2    8 2
     6    2   10 1
     7    5    6 1
     8    5    9 1
     9    6   10 1
    10    3   11 1
    11    3   12 1
    12    3   13 1
    13    4   14 1
    14    4   15 1
    15    4   16 1
    16    5   17 1
    17    5   18 1
    18    6   19 1
    19    6   20 1
@<TRIPOS>MOLECULE
*****
   20    19     0     0     0
SMALL
USER_CHARGES

@<TRIPOS>ATOM
      1 C1         -0.7126    1.3208   -1.5485 C.2       1 <0>         0.6513
      2 C2         -5.9483    0.1693   -4.0062 C.2       1 <0>         0.6512
      3 C3          0.3577    0.3168   -1.2443 C.3       1 <0>        -0.1552
      4 C4         -6.4708   -0.9710   -4.8265 C.3       1 <0>        -0.1552
      5 C5         -2.5898    0.8104   -2.8899 C.3       1 <0>         0.1153
      6 C6         -3.9063    0.0606   -2.8220 C.3       1 <0>         0.1151
      7 O1         -0.5073    2.5181   -1.6945 O.2       1 <0>        -0.5383
      8 O2         -6.6584    0.9476   -3.3841 O.2       1 <0>        -0.5384
      9 O3         -1.9187    0.6904   -1.6316 O.3       1 <0>        -0.4290
     10 O4         -4.5827    0.1970   -4.0660 O.3       1 <0>        -0.4290
     11 H1          0.4131   -0.4213   -2.0483 H         1 <0>         0.0791
     12 H2          0.1490   -0.1697   -0.2881 H         1 <0>         0.0661
     13 H3          1.3229    0.8264   -1.1718 H         1 <0>         0.0705
     14 H4         -6.0955   -1.9169   -4.4283 H         1 <0>         0.0660
     15 H5         -6.1703   -0.8456   -5.8699 H         1 <0>         0.0791
     16 H6         -7.5636   -0.9815   -4.7784 H         1 <0>         0.0705
     17 H7         -2.7514    1.8740   -3.0899 H         1 <0>         0.0702
     18 H8         -1.9455    0.3833   -3.6639 H         1 <0>         0.0703
     19 H9         -4.5517    0.4667   -2.0368 H         1 <0>         0.0702
     20 H10        -3.7318   -1.0041   -2.6417 H         1 <0>         0.0703
@<TRIPOS>BOND
     1    1    3 1
     2    1    7 2
     3    1    9 1
     4    2    4 1
     5    2    8 2
     6    2   10 1
     7    5    6 1
     8    5    9 1
     9    6   10 1
    10    3   11 1
    11    3   12 1
    12    3   13 1
    13    4   14 1
    14    4   15 1
    15    4   16 1
    16    5   17 1
    17    5   18 1
    18    6   19 1
    19    6   20 1
@<TRIPOS>MOLECULE
*****
   20    19     0     0     0
SMALL
USER_CHARGES

@<TRIPOS>ATOM
      1 C1         -1.6236   -0.5831   -1.2441 C.2       1 <0>         0.6513
      2 C2         -6.0531    0.5386   -1.9578 C.2       1 <0>         0.6512
      3 C3         -0.3820   -0.5765   -0.4049 C.3       1 <0>        -0.1552
      4 C4         -6.6393    1.9179   -1.9618 C.3       1 <0>        -0.1552
      5 C5         -2.5898    0.8104   -2.8899 C.3       1 <0>         0.1153
      6 C6         -3.9063    0.0606   -2.8220 C.3       1 <0>         0.1151
      7 O1         -2.2563   -1.5924   -1.5238 O.2       1 <0>        -0.5383
      8 O2         -6.7087   -0.4850   -2.0973 O.2       1 <0>        -0.5384
      9 O3         -1.9187    0.6904   -1.6316 O.3       1 <0>        -0.4290
     10 O4         -4.6998    0.6097   -1.7769 O.3       1 <0>        -0.4290
     11 H1         -0.5445    0.0244    0.4932 H         1 <0>         0.0791
     12 H2          0.4561   -0.1831   -0.9856 H         1 <0>         0.0661
     13 H3         -0.1442   -1.6002   -0.1011 H         1 <0>         0.0705
     14 H4         -6.2178    2.4977   -2.7865 H         1 <0>         0.0660
     15 H5         -6.4412    2.4079   -1.0052 H         1 <0>         0.0791
     16 H6         -7.7224    1.8511   -2.1004 H         1 <0>         0.0705
     17 H7         -2.7514    1.8740   -3.0899 H         1 <0>         0.0702
     18 H8         -1.9455    0.3833   -3.6639 H         1 <0>         0.0703
     19 H9         -3.7457   -1.0004   -2.6066 H         1 <0>         0.0702
     20 H10        -4.4563    0.1668   -3.7617 H         1 <0>         0.0703
@<TRIPOS>BOND
     1    1    3 1
     2    1    7 2
     3    1    9 1
     4    2    4 1
     5    2    8 2
     6    2   10 1
     7    5    6 1
     8    5    9 1
     9    6   10 1
    10    3   11 1
    11    3   12 1
    12    3   13 1
    13    4   14 1
    14    4   15 1
    15    4   16 1
    16    5   17 1
    17    5   18 1
    18    6   19 1
    19    6   20 1
