@<TRIPOS>MOLECULE
DRG
   12    12     1     0     0
SMALL
No Charge or Current Charge


@<TRIPOS>ATOM
      1 C1         -0.7600   -9.6100   -2.9100 C.2       1 MOL     -0.184100
      2 C3         -0.0100   -8.8900   -1.9600 C.2       1 MOL     -0.184100
      3 C2          1.2700   -9.3600   -1.6000 C.2       1 MOL      0.537600
      4 O3          1.9300   -8.7300   -0.7700 O.2       1 MOL     -0.490200
      5 C8          1.8200  -10.5400   -2.1500 C.2       1 MOL     -0.184100
      6 C6          1.0700  -11.2600   -3.0900 C.2       1 MOL     -0.184100
      7 C4         -0.2100  -10.7900   -3.4600 C.2       1 MOL      0.537600
      8 O4         -0.8700  -11.4200   -4.2800 O.2       1 MOL     -0.490200
      9 H0         -1.6660   -9.2920   -3.1900 H         1 MOL      0.160400
     10 H1         -0.3800   -8.0580   -1.5470 H         1 MOL      0.160400
     11 H2          2.7280  -10.8550   -1.8740 H         1 MOL      0.160400
     12 H3          1.4370  -12.0980   -3.4950 H         1 MOL      0.160400
@<TRIPOS>BOND
     1    1    2 2   
     2    1    7 1   
     3    1    9 1   
     4    2    3 1   
     5    2   10 1   
     6    3    4 2   
     7    3    5 1   
     8    5    6 2   
     9    5   11 1   
    10    6    7 1   
    11    6   12 1   
    12    7    8 2   
@<TRIPOS>SUBSTRUCTURE
     1 DRG         1 TEMP              0 ****  ****    0 ROOT
