@<TRIPOS>MOLECULE
*****
  520    19     1     0     0
SMALL
No Charge or Current Charge


@<TRIPOS>ATOM
      1 C1          1.5000    0.0000    0.0000 c         1 <0>      0.651300
      2 C2          3.0800   -0.0740   -2.9300 c         1 <0>      0.651200
      3 C3          0.0000    0.0000    0.0000 c3        1 <0>     -0.155200
      4 C4          3.4590   -1.4090   -3.5020 c3        1 <0>     -0.155200
      5 C5          3.3850    1.4490   -0.0740 c3        1 <0>      0.115300
      6 C6          3.8650    1.6530   -1.4970 c3        1 <0>      0.115100
      7 O1          2.1850   -0.9750   -0.0080 o         1 <0>     -0.538300
      8 O2          2.0370    0.4740   -3.1050 o         1 <0>     -0.538400
      9 O3          1.9840    1.2370    0.0000 os        1 <0>     -0.429000
     10 O4          4.0580    0.4280   -2.1850 os        1 <0>     -0.429000
     11 H1         -0.3410    0.3740   -0.9590 hc        1 <0>      0.079100
     12 H2         -0.3760    0.6590    0.7720 hc        1 <0>      0.066100
     13 H3         -0.3610   -1.0060    0.1510 hc        1 <0>      0.070500
     14 H4          4.4350   -1.3550   -3.9690 hc        1 <0>      0.066000
     15 H5          3.5140   -2.1250   -2.6890 hc        1 <0>      0.079100
     16 H6          2.7120   -1.7210   -4.2160 hc        1 <0>      0.070500
     17 H7          3.9120    0.6310    0.3960 h1        1 <0>      0.070200
     18 H8          3.5580    2.3610    0.4820 h1        1 <0>      0.070300
     19 H9          3.1830    2.2860   -2.0460 h1        1 <0>      0.070200
     20 H10         4.8440    2.1140   -1.4660 h1        1 <0>      0.070300
     21 C7         -0.7130    1.3210   -1.5480 DU        1 <0>      0.651300
     22 C32        -4.7450   -2.1210   -2.4720 DU        1 <0>      0.651200
     23 C57        -0.1310    1.1110   -0.1830 DU        1 <0>     -0.155200
     24 C82        -4.3200   -3.5310   -2.1960 DU        1 <0>     -0.155200
     25 C107       -2.5900    0.8100   -2.8900 DU        1 <0>      0.115300
     26 C132       -3.9060    0.0610   -2.8220 DU        1 <0>      0.115100
     27 O5         -0.1670    1.9650   -2.4340 os        1 <0>     -0.538300
     28 O30        -5.9100   -1.7680   -2.5950 os        1 <0>     -0.538400
     29 O55        -1.9190    0.6900   -1.6320 os        1 <0>     -0.429000
     30 O80        -3.6450   -1.3130   -2.5610 os        1 <0>     -0.429000
     31 H11         0.0290    0.0440   -0.0080 DU        1 <0>      0.079100
     32 H36        -0.7990    1.5300    0.5730 DU        1 <0>      0.066100
     33 H61         0.8340    1.6230   -0.1180 DU        1 <0>      0.070500
     34 H86        -3.7870   -3.5780   -1.2430 DU        1 <0>      0.066000
     35 H111       -3.6870   -3.8930   -3.0100 DU        1 <0>      0.079100
     36 H136       -5.2050   -4.1710   -2.1330 DU        1 <0>      0.070500
     37 H161       -2.7510    1.8740   -3.0900 DU        1 <0>      0.070200
     38 H186       -1.9460    0.3830   -3.6640 DU        1 <0>      0.070300
     39 H211       -4.4490    0.1300   -3.7700 DU        1 <0>      0.070200
     40 H236       -4.5280    0.4510   -2.0110 DU        1 <0>      0.070300
     41 C8         -0.7130    1.3210   -1.5480 DU        1 <0>      0.651300
     42 C33        -5.9250    0.0310   -1.5940 DU        1 <0>      0.651200
     43 C58        -0.1310    1.1110   -0.1830 DU        1 <0>     -0.155200
     44 C83        -6.6440    0.7080   -0.4670 DU        1 <0>     -0.155200
     45 C108       -2.5900    0.8100   -2.8900 DU        1 <0>      0.115300
     46 C133       -3.9060    0.0610   -2.8220 DU        1 <0>      0.115100
     47 O6         -0.1670    1.9650   -2.4340 os        1 <0>     -0.538300
     48 O31        -6.3860   -0.8990   -2.2410 os        1 <0>     -0.538400
     49 O56        -1.9190    0.6900   -1.6320 os        1 <0>     -0.429000
     50 O81        -4.7000    0.6100   -1.7770 os        1 <0>     -0.429000
     51 H12         0.0290    0.0440   -0.0080 DU        1 <0>      0.079100
     52 H37        -0.7990    1.5300    0.5730 DU        1 <0>      0.066100
     53 H62         0.8340    1.6230   -0.1180 DU        1 <0>      0.070500
     54 H87        -6.8000    1.7620   -0.7060 DU        1 <0>      0.066000
     55 H112       -6.0690    0.6030    0.4570 DU        1 <0>      0.079100
     56 H137       -7.6200    0.2340   -0.3230 DU        1 <0>      0.070500
     57 H162       -2.7510    1.8740   -3.0900 DU        1 <0>      0.070200
     58 H187       -1.9460    0.3830   -3.6640 DU        1 <0>      0.070300
     59 H212       -3.7460   -1.0000   -2.6070 DU        1 <0>      0.070200
     60 H237       -4.4560    0.1670   -3.7620 DU        1 <0>      0.070300
     61 C9         -0.7130    1.3210   -1.5480 DU        1 <0>      0.651300
     62 C34        -5.7940   -0.4310   -4.1560 DU        1 <0>      0.651200
     63 C59        -0.1310    1.1110   -0.1830 DU        1 <0>     -0.155200
     64 C84        -6.3870   -0.2020   -5.5130 DU        1 <0>     -0.155200
     65 C109       -2.5900    0.8100   -2.8900 DU        1 <0>      0.115300
     66 C134       -3.9060    0.0610   -2.8220 DU        1 <0>      0.115100
     67 O7         -0.1670    1.9650   -2.4340 os        1 <0>     -0.538300
     68 O32        -6.3330   -1.0860   -3.2750 os        1 <0>     -0.538400
     69 O57        -1.9190    0.6900   -1.6320 os        1 <0>     -0.429000
     70 O82        -4.5830    0.1970   -4.0660 os        1 <0>     -0.429000
     71 H13         0.0290    0.0440   -0.0080 DU        1 <0>      0.079100
     72 H38        -0.7990    1.5300    0.5730 DU        1 <0>      0.066100
     73 H63         0.8340    1.6230   -0.1180 DU        1 <0>      0.070500
     74 H88        -5.7310   -0.6210   -6.2800 DU        1 <0>      0.066000
     75 H113       -6.5360    0.8690   -5.6770 DU        1 <0>      0.079100
     76 H138       -7.3580   -0.7010   -5.5740 DU        1 <0>      0.070500
     77 H163       -2.7510    1.8740   -3.0900 DU        1 <0>      0.070200
     78 H188       -1.9460    0.3830   -3.6640 DU        1 <0>      0.070300
     79 H213       -4.5520    0.4670   -2.0370 DU        1 <0>      0.070200
     80 H238       -3.7320   -1.0040   -2.6420 DU        1 <0>      0.070300
     81 C10        -2.2050    1.6630   -0.7200 DU        1 <0>      0.651300
     82 C35        -4.6140   -1.9800   -1.8640 DU        1 <0>      0.651200
     83 C60        -1.4360    1.4090    0.5410 DU        1 <0>     -0.155200
     84 C85        -4.2050   -3.4080   -1.6650 DU        1 <0>     -0.155200
     85 C110       -2.5900    0.8100   -2.8900 DU        1 <0>      0.115300
     86 C135       -3.9060    0.0610   -2.8220 DU        1 <0>      0.115100
     87 O8         -2.9680    2.6060   -0.8790 os        1 <0>     -0.538300
     88 O33        -5.6640   -1.5040   -1.4540 os        1 <0>     -0.538400
     89 O58        -1.9190    0.6900   -1.6320 os        1 <0>     -0.429000
     90 O83        -3.6450   -1.3130   -2.5610 os        1 <0>     -0.429000
     91 H14        -0.3640    1.4410    0.3350 DU        1 <0>      0.079100
     92 H39        -1.7200    0.4410    0.9600 DU        1 <0>      0.066100
     93 H64        -1.6730    2.1870    1.2730 DU        1 <0>      0.070500
     94 H89        -3.2800   -3.4520   -1.0850 DU        1 <0>      0.066000
     95 H114       -4.0760   -3.8960   -2.6340 DU        1 <0>      0.079100
     96 H139       -4.9880   -3.9360   -1.1120 DU        1 <0>      0.070500
     97 H164       -2.7510    1.8740   -3.0900 DU        1 <0>      0.070200
     98 H189       -1.9460    0.3830   -3.6640 DU        1 <0>      0.070300
     99 H214       -4.4490    0.1300   -3.7700 DU        1 <0>      0.070200
    100 H239       -4.5280    0.4510   -2.0110 DU        1 <0>      0.070300
    101 C11        -2.2050    1.6630   -0.7200 DU        1 <0>      0.651300
    102 C36        -5.4230    1.2700   -4.1710 DU        1 <0>      0.651200
    103 C61        -1.4360    1.4090    0.5410 DU        1 <0>     -0.155200
    104 C86        -6.0610    1.2860   -5.5270 DU        1 <0>     -0.155200
    105 C111       -2.5900    0.8100   -2.8900 DU        1 <0>      0.115300
    106 C136       -3.9060    0.0610   -2.8220 DU        1 <0>      0.115100
    107 O9         -2.9680    2.6060   -0.8790 os        1 <0>     -0.538300
    108 O34        -5.6370    2.1060   -3.3030 os        1 <0>     -0.538400
    109 O59        -1.9190    0.6900   -1.6320 os        1 <0>     -0.429000
    110 O84        -4.5830    0.1970   -4.0660 os        1 <0>     -0.429000
    111 H15        -0.3640    1.4410    0.3350 DU        1 <0>      0.079100
    112 H40        -1.7200    0.4410    0.9600 DU        1 <0>      0.066100
    113 H65        -1.6730    2.1870    1.2730 DU        1 <0>      0.070500
    114 H90        -6.6530    0.3780   -5.6690 DU        1 <0>      0.066000
    115 H115       -5.2920    1.3690   -6.2990 DU        1 <0>      0.079100
    116 H140       -6.7260    2.1510   -5.6050 DU        1 <0>      0.070500
    117 H165       -2.7510    1.8740   -3.0900 DU        1 <0>      0.070200
    118 H190       -1.9460    0.3830   -3.6640 DU        1 <0>      0.070300
    119 H215       -4.5520    0.4670   -2.0370 DU        1 <0>      0.070200
    120 H240       -3.7320   -1.0040   -2.6420 DU        1 <0>      0.070300
    121 C12        -1.0830   -0.3800   -1.5130 DU        1 <0>      0.651300
    122 C37        -4.7450   -2.1210   -2.4720 DU        1 <0>      0.651200
    123 C62        -0.4540   -0.3770   -0.1530 DU        1 <0>     -0.155200
    124 C87        -4.3200   -3.5310   -2.1960 DU        1 <0>     -0.155200
    125 C112       -2.5900    0.8100   -2.8900 DU        1 <0>      0.115300
    126 C137       -3.9060    0.0610   -2.8220 DU        1 <0>      0.115100
    127 O10        -0.8620   -1.2270   -2.3680 os        1 <0>     -0.538300
    128 O35        -5.9100   -1.7680   -2.5950 os        1 <0>     -0.538400
    129 O60        -1.9190    0.6900   -1.6320 os        1 <0>     -0.429000
    130 O85        -3.6450   -1.3130   -2.5610 os        1 <0>     -0.429000
    131 H16        -1.2280   -0.4620    0.6140 DU        1 <0>      0.079100
    132 H41         0.1270    0.5390   -0.0150 DU        1 <0>      0.066100
    133 H66         0.2210   -1.2330   -0.0630 DU        1 <0>      0.070500
    134 H91        -3.7870   -3.5780   -1.2430 DU        1 <0>      0.066000
    135 H116       -3.6870   -3.8930   -3.0100 DU        1 <0>      0.079100
    136 H141       -5.2050   -4.1710   -2.1330 DU        1 <0>      0.070500
    137 H166       -2.7510    1.8740   -3.0900 DU        1 <0>      0.070200
    138 H191       -1.9460    0.3830   -3.6640 DU        1 <0>      0.070300
    139 H216       -4.4490    0.1300   -3.7700 DU        1 <0>      0.070200
    140 H241       -4.5280    0.4510   -2.0110 DU        1 <0>      0.070300
    141 C13        -2.2050    1.6630   -0.7200 DU        1 <0>      0.651300
    142 C38        -5.9250    0.0310   -1.5940 DU        1 <0>      0.651200
    143 C63        -1.4360    1.4090    0.5410 DU        1 <0>     -0.155200
    144 C88        -6.6440    0.7080   -0.4670 DU        1 <0>     -0.155200
    145 C113       -2.5900    0.8100   -2.8900 DU        1 <0>      0.115300
    146 C138       -3.9060    0.0610   -2.8220 DU        1 <0>      0.115100
    147 O11        -2.9680    2.6060   -0.8790 os        1 <0>     -0.538300
    148 O36        -6.3860   -0.8990   -2.2410 os        1 <0>     -0.538400
    149 O61        -1.9190    0.6900   -1.6320 os        1 <0>     -0.429000
    150 O86        -4.7000    0.6100   -1.7770 os        1 <0>     -0.429000
    151 H17        -0.3640    1.4410    0.3350 DU        1 <0>      0.079100
    152 H42        -1.7200    0.4410    0.9600 DU        1 <0>      0.066100
    153 H67        -1.6730    2.1870    1.2730 DU        1 <0>      0.070500
    154 H92        -6.8000    1.7620   -0.7060 DU        1 <0>      0.066000
    155 H117       -6.0690    0.6030    0.4570 DU        1 <0>      0.079100
    156 H142       -7.6200    0.2340   -0.3230 DU        1 <0>      0.070500
    157 H167       -2.7510    1.8740   -3.0900 DU        1 <0>      0.070200
    158 H192       -1.9460    0.3830   -3.6640 DU        1 <0>      0.070300
    159 H217       -3.7460   -1.0000   -2.6070 DU        1 <0>      0.070200
    160 H242       -4.4560    0.1670   -3.7620 DU        1 <0>      0.070300
    161 C14        -0.5570    0.7190   -1.6890 DU        1 <0>      0.651300
    162 C39        -4.3080   -0.7620   -5.0000 DU        1 <0>      0.651200
    163 C64         0.0060    0.5850   -0.3060 DU        1 <0>     -0.155200
    164 C89        -5.0870   -0.4930   -6.2520 DU        1 <0>     -0.155200
    165 C114       -2.5900    0.8100   -2.8900 DU        1 <0>      0.115300
    166 C139       -3.9060    0.0610   -2.8220 DU        1 <0>      0.115100
    167 O12         0.1250    0.8360   -2.6980 os        1 <0>     -0.538300
    168 O37        -3.5450   -1.7090   -4.8590 os        1 <0>     -0.538400
    169 O62        -1.9190    0.6900   -1.6320 os        1 <0>     -0.429000
    170 O87        -4.5830    0.1970   -4.0660 os        1 <0>     -0.429000
    171 H18        -0.2970   -0.3720    0.1260 DU        1 <0>      0.079100
    172 H43        -0.3370    1.4150    0.3160 DU        1 <0>      0.066100
    173 H68         1.0980    0.6150   -0.3550 DU        1 <0>      0.070500
    174 H93        -4.7980    0.4760   -6.6670 DU        1 <0>      0.066000
    175 H118       -6.1580   -0.5150   -6.0340 DU        1 <0>      0.079100
    176 H143       -4.8660   -1.2680   -6.9910 DU        1 <0>      0.070500
    177 H168       -2.7510    1.8740   -3.0900 DU        1 <0>      0.070200
    178 H193       -1.9460    0.3830   -3.6640 DU        1 <0>      0.070300
    179 H218       -4.5520    0.4670   -2.0370 DU        1 <0>      0.070200
    180 H243       -3.7320   -1.0040   -2.6420 DU        1 <0>      0.070300
    181 C15        -1.0830   -0.3800   -1.5130 DU        1 <0>      0.651300
    182 C40        -4.5360    0.0410   -0.5440 DU        1 <0>      0.651200
    183 C65         0.0370   -0.0400   -0.5770 DU        1 <0>     -0.155200
    184 C90        -5.4290    0.7170    0.4510 DU        1 <0>     -0.155200
    185 C115       -2.5900    0.8100   -2.8900 DU        1 <0>      0.115300
    186 C140       -3.9060    0.0610   -2.8220 DU        1 <0>      0.115100
    187 O13        -1.2040   -1.4620   -2.0730 os        1 <0>     -0.538300
    188 O38        -3.7800   -0.8810   -0.2710 os        1 <0>     -0.538400
    189 O63        -1.9190    0.6900   -1.6320 os        1 <0>     -0.429000
    190 O88        -4.7000    0.6100   -1.7770 os        1 <0>     -0.429000
    191 H19        -0.3630    0.1910    0.4120 DU        1 <0>      0.079100
    192 H44         0.6050    0.8070   -0.9710 DU        1 <0>      0.066100
    193 H69         0.7100   -0.8990   -0.4900 DU        1 <0>      0.070500
    194 H94        -6.4740    0.5910    0.1570 DU        1 <0>      0.066000
    195 H119       -5.1720    1.7770    0.5200 DU        1 <0>      0.079100
    196 H144       -5.2870    0.2600    1.4350 DU        1 <0>      0.070500
    197 H169       -2.7510    1.8740   -3.0900 DU        1 <0>      0.070200
    198 H194       -1.9460    0.3830   -3.6640 DU        1 <0>      0.070300
    199 H219       -3.7460   -1.0000   -2.6070 DU        1 <0>      0.070200
    200 H244       -4.4560    0.1670   -3.7620 DU        1 <0>      0.070300
    201 C16        -2.2050    1.6630   -0.7200 DU        1 <0>      0.651300
    202 C41        -4.5360    0.0410   -0.5440 DU        1 <0>      0.651200
    203 C66        -1.4360    1.4090    0.5410 DU        1 <0>     -0.155200
    204 C91        -5.4290    0.7170    0.4510 DU        1 <0>     -0.155200
    205 C116       -2.5900    0.8100   -2.8900 DU        1 <0>      0.115300
    206 C141       -3.9060    0.0610   -2.8220 DU        1 <0>      0.115100
    207 O14        -2.9680    2.6060   -0.8790 os        1 <0>     -0.538300
    208 O39        -3.7800   -0.8810   -0.2710 os        1 <0>     -0.538400
    209 O64        -1.9190    0.6900   -1.6320 os        1 <0>     -0.429000
    210 O89        -4.7000    0.6100   -1.7770 os        1 <0>     -0.429000
    211 H20        -0.3640    1.4410    0.3350 DU        1 <0>      0.079100
    212 H45        -1.7200    0.4410    0.9600 DU        1 <0>      0.066100
    213 H70        -1.6730    2.1870    1.2730 DU        1 <0>      0.070500
    214 H95        -6.4740    0.5910    0.1570 DU        1 <0>      0.066000
    215 H120       -5.1720    1.7770    0.5200 DU        1 <0>      0.079100
    216 H145       -5.2870    0.2600    1.4350 DU        1 <0>      0.070500
    217 H170       -2.7510    1.8740   -3.0900 DU        1 <0>      0.070200
    218 H195       -1.9460    0.3830   -3.6640 DU        1 <0>      0.070300
    219 H220       -3.7460   -1.0000   -2.6070 DU        1 <0>      0.070200
    220 H245       -4.4560    0.1670   -3.7620 DU        1 <0>      0.070300
    221 C17        -1.0830   -0.3800   -1.5130 DU        1 <0>      0.651300
    222 C42        -3.5980   -1.6690   -1.2420 DU        1 <0>      0.651200
    223 C67        -0.4540   -0.3770   -0.1530 DU        1 <0>     -0.155200
    224 C92        -3.3170   -3.1360   -1.1200 DU        1 <0>     -0.155200
    225 C117       -2.5900    0.8100   -2.8900 DU        1 <0>      0.115300
    226 C142       -3.9060    0.0610   -2.8220 DU        1 <0>      0.115100
    227 O15        -0.8620   -1.2270   -2.3680 os        1 <0>     -0.538300
    228 O40        -3.7580   -0.9200   -0.2870 os        1 <0>     -0.538400
    229 O65        -1.9190    0.6900   -1.6320 os        1 <0>     -0.429000
    230 O90        -3.6450   -1.3130   -2.5610 os        1 <0>     -0.429000
    231 H21        -1.2280   -0.4620    0.6140 DU        1 <0>      0.079100
    232 H46         0.1270    0.5390   -0.0150 DU        1 <0>      0.066100
    233 H71         0.2210   -1.2330   -0.0630 DU        1 <0>      0.070500
    234 H96        -2.3470   -3.3660   -1.5670 DU        1 <0>      0.066000
    235 H121       -4.1120   -3.7080   -1.6070 DU        1 <0>      0.079100
    236 H146       -3.2880   -3.4130   -0.0620 DU        1 <0>      0.070500
    237 H171       -2.7510    1.8740   -3.0900 DU        1 <0>      0.070200
    238 H196       -1.9460    0.3830   -3.6640 DU        1 <0>      0.070300
    239 H221       -4.4490    0.1300   -3.7700 DU        1 <0>      0.070200
    240 H246       -4.5280    0.4510   -2.0110 DU        1 <0>      0.070300
    241 C18        -0.5570    0.7190   -1.6890 DU        1 <0>      0.651300
    242 C43        -4.8840    1.4760   -4.4420 DU        1 <0>      0.651200
    243 C68         0.0090   -0.0980   -0.5670 DU        1 <0>     -0.155200
    244 C93        -4.8900    1.5800   -5.9370 DU        1 <0>     -0.155200
    245 C118       -2.5900    0.8100   -2.8900 DU        1 <0>      0.115300
    246 C143       -3.9060    0.0610   -2.8220 DU        1 <0>      0.115100
    247 O16         0.1230    1.3120   -2.5160 os        1 <0>     -0.538300
    248 O41        -5.1160    2.4130   -3.6890 os        1 <0>     -0.538400
    249 O66        -1.9190    0.6900   -1.6320 os        1 <0>     -0.429000
    250 O91        -4.5830    0.1970   -4.0660 os        1 <0>     -0.429000
    251 H22        -0.3150   -1.1370   -0.6650 DU        1 <0>      0.079100
    252 H47        -0.3110    0.3170    0.3920 DU        1 <0>      0.066100
    253 H72         1.1020   -0.0680   -0.6120 DU        1 <0>      0.070500
    254 H97        -5.6540    0.9170   -6.3510 DU        1 <0>      0.066000
    255 H122       -3.9030    1.3250   -6.3310 DU        1 <0>      0.079100
    256 H147       -5.1250    2.6080   -6.2280 DU        1 <0>      0.070500
    257 H172       -2.7510    1.8740   -3.0900 DU        1 <0>      0.070200
    258 H197       -1.9460    0.3830   -3.6640 DU        1 <0>      0.070300
    259 H222       -4.5520    0.4670   -2.0370 DU        1 <0>      0.070200
    260 H247       -3.7320   -1.0040   -2.6420 DU        1 <0>      0.070300
    261 C19        -1.0830   -0.3800   -1.5130 DU        1 <0>      0.651300
    262 C44        -5.0140    1.9350   -1.9020 DU        1 <0>      0.651200
    263 C69        -1.0310   -0.8200   -0.0810 DU        1 <0>     -0.155200
    264 C94        -5.1670    2.5520   -0.5450 DU        1 <0>     -0.155200
    265 C119       -2.5900    0.8100   -2.8900 DU        1 <0>      0.115300
    266 C144       -3.9060    0.0610   -2.8220 DU        1 <0>      0.115100
    267 O17        -0.4590   -0.9180   -2.4180 os        1 <0>     -0.538300
    268 O42        -5.1540    2.5460   -2.9530 os        1 <0>     -0.538400
    269 O67        -1.9190    0.6900   -1.6320 os        1 <0>     -0.429000
    270 O92        -4.7000    0.6100   -1.7770 os        1 <0>     -0.429000
    271 H23        -2.0270   -1.1260    0.2490 DU        1 <0>      0.079100
    272 H48        -0.6510   -0.0070    0.5430 DU        1 <0>      0.066100
    273 H73        -0.3550   -1.6740    0.0110 DU        1 <0>      0.070500
    274 H98        -4.2260    2.4780    0.0050 DU        1 <0>      0.066000
    275 H123       -5.9720    2.0530    0.0000 DU        1 <0>      0.079100
    276 H148       -5.4250    3.6090   -0.6550 DU        1 <0>      0.070500
    277 H173       -2.7510    1.8740   -3.0900 DU        1 <0>      0.070200
    278 H198       -1.9460    0.3830   -3.6640 DU        1 <0>      0.070300
    279 H223       -3.7460   -1.0000   -2.6070 DU        1 <0>      0.070200
    280 H248       -4.4560    0.1670   -3.7620 DU        1 <0>      0.070300
    281 C20        -2.5960    1.1860   -0.5570 DU        1 <0>      0.651300
    282 C45        -2.8780   -1.9590   -3.4900 DU        1 <0>      0.651200
    283 C70        -2.2230    0.4120    0.6710 DU        1 <0>     -0.155200
    284 C95        -2.0920   -3.0520   -2.8300 DU        1 <0>     -0.155200
    285 C120       -2.5900    0.8100   -2.8900 DU        1 <0>      0.115300
    286 C145       -3.9060    0.0610   -2.8220 DU        1 <0>      0.115100
    287 O18        -3.3900    2.1160   -0.5650 os        1 <0>     -0.538300
    288 O43        -2.8240   -1.7020   -4.6850 os        1 <0>     -0.538400
    289 O68        -1.9190    0.6900   -1.6320 os        1 <0>     -0.429000
    290 O93        -3.6450   -1.3130   -2.5610 os        1 <0>     -0.429000
    291 H24        -1.1520    0.5170    0.8640 DU        1 <0>      0.079100
    292 H49        -2.4900   -0.6400    0.5420 DU        1 <0>      0.066100
    293 H74        -2.7720    0.8080    1.5300 DU        1 <0>      0.070500
    294 H99        -2.7730   -3.7820   -2.3870 DU        1 <0>      0.066000
    295 H124       -1.4330   -2.6270   -2.0690 DU        1 <0>      0.079100
    296 H149       -1.4770   -3.5590   -3.5790 DU        1 <0>      0.070500
    297 H174       -2.7510    1.8740   -3.0900 DU        1 <0>      0.070200
    298 H199       -1.9460    0.3830   -3.6640 DU        1 <0>      0.070300
    299 H224       -4.4490    0.1300   -3.7700 DU        1 <0>      0.070200
    300 H249       -4.5280    0.4510   -2.0110 DU        1 <0>      0.070300
    301 C21        -2.2050    1.6630   -0.7200 DU        1 <0>      0.651300
    302 C46        -4.5520   -2.1990   -3.0740 DU        1 <0>      0.651200
    303 C71        -0.9480    2.3900   -0.3500 DU        1 <0>     -0.155200
    304 C96        -4.1510   -3.5990   -2.7230 DU        1 <0>     -0.155200
    305 C121       -2.5900    0.8100   -2.8900 DU        1 <0>      0.115300
    306 C146       -3.9060    0.0610   -2.8220 DU        1 <0>      0.115100
    307 O19        -3.3080    1.9230   -0.2580 os        1 <0>     -0.538300
    308 O44        -5.5480   -1.9140   -3.7250 os        1 <0>     -0.538400
    309 O69        -1.9190    0.6900   -1.6320 os        1 <0>     -0.429000
    310 O94        -3.6450   -1.3130   -2.5610 os        1 <0>     -0.429000
    311 H25        -0.5220    2.8670   -1.2360 DU        1 <0>      0.079100
    312 H50        -0.2330    1.6920    0.0930 DU        1 <0>      0.066100
    313 H75        -1.1800    3.1650    0.3860 DU        1 <0>      0.070500
    314 H100       -4.1370   -3.7200   -1.6370 DU        1 <0>      0.066000
    315 H125       -3.1680   -3.8210   -3.1480 DU        1 <0>      0.079100
    316 H150       -4.8770   -4.3010   -3.1430 DU        1 <0>      0.070500
    317 H175       -2.7510    1.8740   -3.0900 DU        1 <0>      0.070200
    318 H200       -1.9460    0.3830   -3.6640 DU        1 <0>      0.070300
    319 H225       -4.4490    0.1300   -3.7700 DU        1 <0>      0.070200
    320 H250       -4.5280    0.4510   -2.0110 DU        1 <0>      0.070300
    321 C22        -2.2050    1.6630   -0.7200 DU        1 <0>      0.651300
    322 C47        -3.9180   -0.2840   -5.1600 DU        1 <0>      0.651200
    323 C72        -1.0190    1.8810    0.1700 DU        1 <0>     -0.155200
    324 C97        -3.6880    0.8230   -6.1430 DU        1 <0>     -0.155200
    325 C122       -2.5900    0.8100   -2.8900 DU        1 <0>      0.115300
    326 C147       -3.9060    0.0610   -2.8220 DU        1 <0>      0.115100
    327 O20        -3.2590    2.2780   -0.6200 os        1 <0>     -0.538300
    328 O45        -3.5570   -1.4400   -5.3320 os        1 <0>     -0.538400
    329 O70        -1.9190    0.6900   -1.6320 os        1 <0>     -0.429000
    330 O95        -4.5830    0.1970   -4.0660 os        1 <0>     -0.429000
    331 H26        -0.1650    2.2120   -0.4260 DU        1 <0>      0.079100
    332 H51        -0.7810    0.9580    0.7040 DU        1 <0>      0.066100
    333 H76        -1.2540    2.6570    0.9040 DU        1 <0>      0.070500
    334 H101       -3.0710    1.6010   -5.6880 DU        1 <0>      0.066000
    335 H126       -4.6460    1.2340   -6.4710 DU        1 <0>      0.079100
    336 H151       -3.1620    0.4280   -7.0170 DU        1 <0>      0.070500
    337 H176       -2.7510    1.8740   -3.0900 DU        1 <0>      0.070200
    338 H201       -1.9460    0.3830   -3.6640 DU        1 <0>      0.070300
    339 H226       -4.5520    0.4670   -2.0370 DU        1 <0>      0.070200
    340 H251       -3.7320   -1.0040   -2.6420 DU        1 <0>      0.070300
    341 C23        -1.0830   -0.3800   -1.5130 DU        1 <0>      0.651300
    342 C48        -4.8840    1.4760   -4.4420 DU        1 <0>      0.651200
    343 C73         0.0370   -0.0400   -0.5770 DU        1 <0>     -0.155200
    344 C98        -4.2190    1.7940   -5.7470 DU        1 <0>     -0.155200
    345 C123       -2.5900    0.8100   -2.8900 DU        1 <0>      0.115300
    346 C148       -3.9060    0.0610   -2.8220 DU        1 <0>      0.115100
    347 O21        -1.2040   -1.4620   -2.0730 os        1 <0>     -0.538300
    348 O46        -5.5870    2.2630   -3.8220 os        1 <0>     -0.538400
    349 O71        -1.9190    0.6900   -1.6320 os        1 <0>     -0.429000
    350 O96        -4.5830    0.1970   -4.0660 os        1 <0>     -0.429000
    351 H27        -0.3630    0.1910    0.4120 DU        1 <0>      0.079100
    352 H52         0.6050    0.8070   -0.9710 DU        1 <0>      0.066100
    353 H77         0.7100   -0.8990   -0.4900 DU        1 <0>      0.070500
    354 H102       -4.5850    1.1180   -6.5240 DU        1 <0>      0.066000
    355 H127       -3.1350    1.7080   -5.6410 DU        1 <0>      0.079100
    356 H152       -4.4600    2.8210   -6.0360 DU        1 <0>      0.070500
    357 H177       -2.7510    1.8740   -3.0900 DU        1 <0>      0.070200
    358 H202       -1.9460    0.3830   -3.6640 DU        1 <0>      0.070300
    359 H227       -4.5520    0.4670   -2.0370 DU        1 <0>      0.070200
    360 H252       -3.7320   -1.0040   -2.6420 DU        1 <0>      0.070300
    361 C24        -1.0830   -0.3800   -1.5130 DU        1 <0>      0.651300
    362 C49        -2.8780   -1.9590   -3.4900 DU        1 <0>      0.651200
    363 C74        -0.4540   -0.3770   -0.1530 DU        1 <0>     -0.155200
    364 C99        -2.6870   -3.3900   -3.0860 DU        1 <0>     -0.155200
    365 C124       -2.5900    0.8100   -2.8900 DU        1 <0>      0.115300
    366 C149       -3.9060    0.0610   -2.8220 DU        1 <0>      0.115100
    367 O22        -0.8620   -1.2270   -2.3680 os        1 <0>     -0.538300
    368 O47        -2.4080   -1.4650   -4.5060 os        1 <0>     -0.538400
    369 O72        -1.9190    0.6900   -1.6320 os        1 <0>     -0.429000
    370 O97        -3.6450   -1.3130   -2.5610 os        1 <0>     -0.429000
    371 H28        -1.2280   -0.4620    0.6140 DU        1 <0>      0.079100
    372 H53         0.1270    0.5390   -0.0150 DU        1 <0>      0.066100
    373 H78         0.2210   -1.2330   -0.0630 DU        1 <0>      0.070500
    374 H103       -3.6550   -3.8940   -3.0370 DU        1 <0>      0.066000
    375 H128       -2.1770   -3.4370   -2.1200 DU        1 <0>      0.079100
    376 H153       -2.0670   -3.8970   -3.8310 DU        1 <0>      0.070500
    377 H178       -2.7510    1.8740   -3.0900 DU        1 <0>      0.070200
    378 H203       -1.9460    0.3830   -3.6640 DU        1 <0>      0.070300
    379 H228       -4.4490    0.1300   -3.7700 DU        1 <0>      0.070200
    380 H253       -4.5280    0.4510   -2.0110 DU        1 <0>      0.070300
    381 C25        -1.1180    1.7400   -1.2920 DU        1 <0>      0.651300
    382 C50        -5.0140    1.9350   -1.9020 DU        1 <0>      0.651200
    383 C75        -1.0770    1.8770    0.2000 DU        1 <0>     -0.155200
    384 C100       -4.4770    2.6980   -0.7300 DU        1 <0>     -0.155200
    385 C125       -2.5900    0.8100   -2.8900 DU        1 <0>      0.115300
    386 C150       -3.9060    0.0610   -2.8220 DU        1 <0>      0.115100
    387 O23        -0.5150    2.4740   -2.0650 os        1 <0>     -0.538300
    388 O48        -5.6380    2.4430   -2.8230 os        1 <0>     -0.538400
    389 O73        -1.9190    0.6900   -1.6320 os        1 <0>     -0.429000
    390 O98        -4.7000    0.6100   -1.7770 os        1 <0>     -0.429000
    391 H29        -0.6580    0.9710    0.6440 DU        1 <0>      0.079100
    392 H54        -2.0830    2.0650    0.5830 DU        1 <0>      0.066100
    393 H79        -0.4390    2.7250    0.4680 DU        1 <0>      0.070500
    394 H104       -3.3880    2.6100   -0.6970 DU        1 <0>      0.066000
    395 H129       -4.9220    2.3210    0.1940 DU        1 <0>      0.079100
    396 H154       -4.7380    3.7550   -0.8350 DU        1 <0>      0.070500
    397 H179       -2.7510    1.8740   -3.0900 DU        1 <0>      0.070200
    398 H204       -1.9460    0.3830   -3.6640 DU        1 <0>      0.070300
    399 H229       -3.7460   -1.0000   -2.6070 DU        1 <0>      0.070200
    400 H254       -4.4560    0.1670   -3.7620 DU        1 <0>      0.070300
    401 C26        -1.1180    1.7400   -1.2920 DU        1 <0>      0.651300
    402 C51        -4.6140   -1.9800   -1.8640 DU        1 <0>      0.651200
    403 C76        -1.6000    2.3440   -0.0080 DU        1 <0>     -0.155200
    404 C101       -5.1360   -3.1210   -2.6830 DU        1 <0>     -0.155200
    405 C126       -2.5900    0.8100   -2.8900 DU        1 <0>      0.115300
    406 C151       -3.9060    0.0610   -2.8220 DU        1 <0>      0.115100
    407 O24        -0.1500    2.1490   -1.9200 os        1 <0>     -0.538300
    408 O49        -5.0110   -1.7060   -0.7400 os        1 <0>     -0.538400
    409 O74        -1.9190    0.6900   -1.6320 os        1 <0>     -0.429000
    410 O99        -3.6450   -1.3130   -2.5610 os        1 <0>     -0.429000
    411 H30        -1.5480    1.6020    0.7930 DU        1 <0>      0.079100
    412 H55        -2.6240    2.7080   -0.1300 DU        1 <0>      0.066100
    413 H80        -0.9600    3.1900    0.2580 DU        1 <0>      0.070500
    414 H105       -4.3280   -3.8250   -2.8970 DU        1 <0>      0.066000
    415 H130       -5.5730   -2.7420   -3.6110 DU        1 <0>      0.079100
    416 H155       -5.9150   -3.6450   -2.1210 DU        1 <0>      0.070500
    417 H180       -2.7510    1.8740   -3.0900 DU        1 <0>      0.070200
    418 H205       -1.9460    0.3830   -3.6640 DU        1 <0>      0.070300
    419 H230       -4.4490    0.1300   -3.7700 DU        1 <0>      0.070200
    420 H255       -4.5280    0.4510   -2.0110 DU        1 <0>      0.070300
    421 C27        -0.6920    0.0960   -1.6760 DU        1 <0>      0.651300
    422 C52        -4.1940   -1.8150   -1.4140 DU        1 <0>      0.651200
    423 C77         0.3460    1.0510   -1.1690 DU        1 <0>     -0.155200
    424 C102       -5.1260   -2.9410   -1.7450 DU        1 <0>     -0.155200
    425 C127       -2.5900    0.8100   -2.8900 DU        1 <0>      0.115300
    426 C152       -3.9060    0.0610   -2.8220 DU        1 <0>      0.115100
    427 O25        -0.4480   -1.0380   -2.0650 os        1 <0>     -0.538300
    428 O50        -3.9730   -1.4200   -0.2770 os        1 <0>     -0.538400
    429 O75        -1.9190    0.6900   -1.6320 os        1 <0>     -0.429000
    430 O100       -3.6450   -1.3130   -2.5610 os        1 <0>     -0.429000
    431 H31         0.1310    1.3150   -0.1300 DU        1 <0>      0.079100
    432 H56         0.3650    1.9450   -1.7970 DU        1 <0>      0.066100
    433 H81         1.3290    0.5740   -1.2120 DU        1 <0>      0.070500
    434 H106       -4.5740   -3.7460   -2.2370 DU        1 <0>      0.066000
    435 H131       -5.9320   -2.5780   -2.3880 DU        1 <0>      0.079100
    436 H156       -5.5650   -3.3320   -0.8230 DU        1 <0>      0.070500
    437 H181       -2.7510    1.8740   -3.0900 DU        1 <0>      0.070200
    438 H206       -1.9460    0.3830   -3.6640 DU        1 <0>      0.070300
    439 H231       -4.4490    0.1300   -3.7700 DU        1 <0>      0.070200
    440 H256       -4.5280    0.4510   -2.0110 DU        1 <0>      0.070300
    441 C28        -1.6640    1.8660   -0.9890 DU        1 <0>      0.651300
    442 C53        -5.0490   -0.2560   -0.7780 DU        1 <0>      0.651200
    443 C78        -0.1870    2.0190   -0.7920 DU        1 <0>     -0.155200
    444 C103       -6.5420   -0.3580   -0.6920 DU        1 <0>     -0.155200
    445 C128       -2.5900    0.8100   -2.8900 DU        1 <0>      0.115300
    446 C153       -3.9060    0.0610   -2.8220 DU        1 <0>      0.115100
    447 O26        -2.4940    2.6860   -0.6190 os        1 <0>     -0.538300
    448 O51        -4.2770   -0.8670   -0.0510 os        1 <0>     -0.538400
    449 O76        -1.9190    0.6900   -1.6320 os        1 <0>     -0.429000
    450 O101       -4.7000    0.6100   -1.7770 os        1 <0>     -0.429000
    451 H32         0.3160    2.0450   -1.7620 DU        1 <0>      0.079100
    452 H57         0.1940    1.1960   -0.1820 DU        1 <0>      0.066100
    453 H82         0.0140    2.9600   -0.2700 DU        1 <0>      0.070500
    454 H107       -6.9420   -0.7470   -1.6310 DU        1 <0>      0.066000
    455 H132       -6.9680    0.6220   -0.4670 DU        1 <0>      0.079100
    456 H157       -6.8120   -1.0480    0.1140 DU        1 <0>      0.070500
    457 H182       -2.7510    1.8740   -3.0900 DU        1 <0>      0.070200
    458 H207       -1.9460    0.3830   -3.6640 DU        1 <0>      0.070300
    459 H232       -3.7460   -1.0000   -2.6070 DU        1 <0>      0.070200
    460 H257       -4.4560    0.1670   -3.7620 DU        1 <0>      0.070300
    461 C29        -1.6640    1.8660   -0.9890 DU        1 <0>      0.651300
    462 C54        -5.8120    0.7920   -4.0120 DU        1 <0>      0.651200
    463 C79        -2.3480    1.8650    0.3450 DU        1 <0>     -0.155200
    464 C104       -5.8150    2.0320   -4.8530 DU        1 <0>     -0.155200
    465 C129       -2.5900    0.8100   -2.8900 DU        1 <0>      0.115300
    466 C154       -3.9060    0.0610   -2.8220 DU        1 <0>      0.115100
    467 O27        -0.9880    2.7930   -1.4120 os        1 <0>     -0.538300
    468 O52        -6.7800    0.3910   -3.3790 os        1 <0>     -0.538400
    469 O77        -1.9190    0.6900   -1.6320 os        1 <0>     -0.429000
    470 O102       -4.5830    0.1970   -4.0660 os        1 <0>     -0.429000
    471 H33        -1.9600    1.0490    0.9600 DU        1 <0>      0.079100
    472 H58        -3.4270    1.7660    0.2090 DU        1 <0>      0.066100
    473 H83        -2.1470    2.8120    0.8550 DU        1 <0>      0.070500
    474 H108       -5.6100    1.7750   -5.8950 DU        1 <0>      0.066000
    475 H133       -5.0700    2.7380   -4.4760 DU        1 <0>      0.079100
    476 H158       -6.8000    2.5050   -4.7980 DU        1 <0>      0.070500
    477 H183       -2.7510    1.8740   -3.0900 DU        1 <0>      0.070200
    478 H208       -1.9460    0.3830   -3.6640 DU        1 <0>      0.070300
    479 H233       -4.5520    0.4670   -2.0370 DU        1 <0>      0.070200
    480 H258       -3.7320   -1.0040   -2.6420 DU        1 <0>      0.070300
    481 C30        -0.7130    1.3210   -1.5480 DU        1 <0>      0.651300
    482 C55        -5.9480    0.1690   -4.0060 DU        1 <0>      0.651200
    483 C80         0.3580    0.3170   -1.2440 DU        1 <0>     -0.155200
    484 C105       -6.4710   -0.9710   -4.8270 DU        1 <0>     -0.155200
    485 C130       -2.5900    0.8100   -2.8900 DU        1 <0>      0.115300
    486 C155       -3.9060    0.0610   -2.8220 DU        1 <0>      0.115100
    487 O28        -0.5070    2.5180   -1.6940 os        1 <0>     -0.538300
    488 O53        -6.6580    0.9480   -3.3840 os        1 <0>     -0.538400
    489 O78        -1.9190    0.6900   -1.6320 os        1 <0>     -0.429000
    490 O103       -4.5830    0.1970   -4.0660 os        1 <0>     -0.429000
    491 H34         0.4130   -0.4210   -2.0480 DU        1 <0>      0.079100
    492 H59         0.1490   -0.1700   -0.2880 DU        1 <0>      0.066100
    493 H84         1.3230    0.8260   -1.1720 DU        1 <0>      0.070500
    494 H109       -6.0960   -1.9170   -4.4280 DU        1 <0>      0.066000
    495 H134       -6.1700   -0.8460   -5.8700 DU        1 <0>      0.079100
    496 H159       -7.5640   -0.9820   -4.7780 DU        1 <0>      0.070500
    497 H184       -2.7510    1.8740   -3.0900 DU        1 <0>      0.070200
    498 H209       -1.9460    0.3830   -3.6640 DU        1 <0>      0.070300
    499 H234       -4.5520    0.4670   -2.0370 DU        1 <0>      0.070200
    500 H259       -3.7320   -1.0040   -2.6420 DU        1 <0>      0.070300
    501 C31        -1.6240   -0.5830   -1.2440 DU        1 <0>      0.651300
    502 C56        -6.0530    0.5390   -1.9580 DU        1 <0>      0.651200
    503 C81        -0.3820   -0.5770   -0.4050 DU        1 <0>     -0.155200
    504 C106       -6.6390    1.9180   -1.9620 DU        1 <0>     -0.155200
    505 C131       -2.5900    0.8100   -2.8900 DU        1 <0>      0.115300
    506 C156       -3.9060    0.0610   -2.8220 DU        1 <0>      0.115100
    507 O29        -2.2560   -1.5920   -1.5240 os        1 <0>     -0.538300
    508 O54        -6.7090   -0.4850   -2.0970 os        1 <0>     -0.538400
    509 O79        -1.9190    0.6900   -1.6320 os        1 <0>     -0.429000
    510 O104       -4.7000    0.6100   -1.7770 os        1 <0>     -0.429000
    511 H35        -0.5440    0.0240    0.4930 DU        1 <0>      0.079100
    512 H60         0.4560   -0.1830   -0.9860 DU        1 <0>      0.066100
    513 H85        -0.1440   -1.6000   -0.1010 DU        1 <0>      0.070500
    514 H110       -6.2180    2.4980   -2.7870 DU        1 <0>      0.066000
    515 H135       -6.4410    2.4080   -1.0050 DU        1 <0>      0.079100
    516 H160       -7.7220    1.8510   -2.1000 DU        1 <0>      0.070500
    517 H185       -2.7510    1.8740   -3.0900 DU        1 <0>      0.070200
    518 H210       -1.9460    0.3830   -3.6640 DU        1 <0>      0.070300
    519 H235       -3.7460   -1.0000   -2.6070 DU        1 <0>      0.070200
    520 H260       -4.4560    0.1670   -3.7620 DU        1 <0>      0.070300
@<TRIPOS>BOND
     1    1    3 1   
     2    1    7 2   
     3    1    9 1   
     4    2    4 1   
     5    2    8 2   
     6    2   10 1   
     7    5    6 1   
     8    5    9 1   
     9    6   10 1   
    10    3   11 1   
    11    3   12 1   
    12    3   13 1   
    13    4   14 1   
    14    4   15 1   
    15    4   16 1   
    16    5   17 1   
    17    5   18 1   
    18    6   19 1   
    19    6   20 1   
@<TRIPOS>SUBSTRUCTURE
     1 <0>         1 TEMP              0 ****  ****    0 ROOT
